REMARK  Name = ../refined-set-2016/1gno/1gno_pocket.pdb
REMARK  206 active torsions:
REMARK  status: ('A' for Active; 'I' for Inactive)
REMARK    1  A    between atoms: _1  and  _3
REMARK    2  A    between atoms: _3  and  _4
REMARK    3  A    between atoms: _3  and  _6
REMARK    4  A    between atoms: _6  and  _7
REMARK    5  A    between atoms: _7  and  _8
REMARK    6  A    between atoms: _8  and  _9
REMARK    7  A    between atoms: _18  and  _20
REMARK    8  A    between atoms: _20  and  _21
REMARK    9  A    between atoms: _20  and  _23
REMARK   10  A    between atoms: _23  and  _24
REMARK   11  A    between atoms: _27  and  _29
REMARK   12  A    between atoms: _29  and  _30
REMARK   13  A    between atoms: _29  and  _32
REMARK   14  A    between atoms: _32  and  _33
REMARK   15  A    between atoms: _36  and  _38
REMARK   16  A    between atoms: _38  and  _39
REMARK   17  A    between atoms: _38  and  _41
REMARK   18  A    between atoms: _41  and  _42
REMARK   19  A    between atoms: _45  and  _47
REMARK   20  A    between atoms: _47  and  _48
REMARK   21  A    between atoms: _47  and  _50
REMARK   22  A    between atoms: _50  and  _51
REMARK   23  A    between atoms: _54  and  _56
REMARK   24  A    between atoms: _56  and  _57
REMARK   25  A    between atoms: _59  and  _61
REMARK   26  A    between atoms: _61  and  _62
REMARK   27  A    between atoms: _65  and  _67
REMARK   28  A    between atoms: _67  and  _68
REMARK   29  A    between atoms: _67  and  _70
REMARK   30  A    between atoms: _70  and  _71
REMARK   31  A    between atoms: _74  and  _76
REMARK   32  A    between atoms: _76  and  _77
REMARK   33  A    between atoms: _76  and  _79
REMARK   34  A    between atoms: _79  and  _80
REMARK   35  A    between atoms: _83  and  _85
REMARK   36  A    between atoms: _85  and  _86
REMARK   37  A    between atoms: _85  and  _88
REMARK   38  A    between atoms: _88  and  _89
REMARK   39  A    between atoms: _92  and  _94
REMARK   40  A    between atoms: _94  and  _95
REMARK   41  A    between atoms: _94  and  _97
REMARK   42  A    between atoms: _100  and  _102
REMARK   43  A    between atoms: _102  and  _103
REMARK   44  A    between atoms: _102  and  _105
REMARK   45  A    between atoms: _105  and  _106
REMARK   46  A    between atoms: _109  and  _111
REMARK   47  A    between atoms: _111  and  _112
REMARK   48  A    between atoms: _114  and  _116
REMARK   49  A    between atoms: _116  and  _117
REMARK   50  A    between atoms: _119  and  _121
REMARK   51  A    between atoms: _121  and  _122
REMARK   52  A    between atoms: _121  and  _124
REMARK   53  A    between atoms: _124  and  _125
REMARK   54  A    between atoms: _128  and  _130
REMARK   55  A    between atoms: _130  and  _131
REMARK   56  A    between atoms: _133  and  _135
REMARK   57  A    between atoms: _135  and  _136
REMARK   58  A    between atoms: _138  and  _140
REMARK   59  A    between atoms: _140  and  _141
REMARK   60  A    between atoms: _140  and  _143
REMARK   61  A    between atoms: _143  and  _144
REMARK   62  A    between atoms: _147  and  _149
REMARK   63  A    between atoms: _149  and  _150
REMARK   64  A    between atoms: _149  and  _152
REMARK   65  A    between atoms: _152  and  _153
REMARK   66  A    between atoms: _157  and  _158
REMARK   67  A    between atoms: _163  and  _165
REMARK   68  A    between atoms: _165  and  _166
REMARK   69  A    between atoms: _165  and  _168
REMARK   70  A    between atoms: _171  and  _173
REMARK   71  A    between atoms: _173  and  _174
REMARK   72  A    between atoms: _173  and  _176
REMARK   73  A    between atoms: _176  and  _177
REMARK   74  A    between atoms: _182  and  _184
REMARK   75  A    between atoms: _184  and  _185
REMARK   76  A    between atoms: _184  and  _187
REMARK   77  A    between atoms: _187  and  _188
REMARK   78  A    between atoms: _191  and  _193
REMARK   79  A    between atoms: _193  and  _194
REMARK   80  A    between atoms: _193  and  _196
REMARK   81  A    between atoms: _196  and  _197
REMARK   82  A    between atoms: _200  and  _202
REMARK   83  A    between atoms: _202  and  _203
REMARK   84  A    between atoms: _205  and  _207
REMARK   85  A    between atoms: _207  and  _208
REMARK   86  A    between atoms: _207  and  _210
REMARK   87  A    between atoms: _210  and  _211
REMARK   88  A    between atoms: _211  and  _212
REMARK   89  A    between atoms: _212  and  _213
REMARK   90  A    between atoms: _222  and  _224
REMARK   91  A    between atoms: _224  and  _225
REMARK   92  A    between atoms: _224  and  _227
REMARK   93  A    between atoms: _227  and  _228
REMARK   94  A    between atoms: _228  and  _229
REMARK   95  A    between atoms: _229  and  _230
REMARK   96  A    between atoms: _239  and  _241
REMARK   97  A    between atoms: _241  and  _242
REMARK   98  A    between atoms: _241  and  _244
REMARK   99  A    between atoms: _244  and  _245
REMARK  100  A    between atoms: _248  and  _250
REMARK  101  A    between atoms: _250  and  _251
REMARK  102  A    between atoms: _250  and  _253
REMARK  103  A    between atoms: _253  and  _254
REMARK  104  A    between atoms: _257  and  _259
REMARK  105  A    between atoms: _259  and  _260
REMARK  106  A    between atoms: _259  and  _262
REMARK  107  A    between atoms: _262  and  _263
REMARK  108  A    between atoms: _266  and  _268
REMARK  109  A    between atoms: _268  and  _269
REMARK  110  A    between atoms: _268  and  _271
REMARK  111  A    between atoms: _271  and  _272
REMARK  112  A    between atoms: _275  and  _277
REMARK  113  A    between atoms: _277  and  _278
REMARK  114  A    between atoms: _280  and  _282
REMARK  115  A    between atoms: _282  and  _283
REMARK  116  A    between atoms: _286  and  _288
REMARK  117  A    between atoms: _288  and  _289
REMARK  118  A    between atoms: _288  and  _291
REMARK  119  A    between atoms: _291  and  _292
REMARK  120  A    between atoms: _295  and  _297
REMARK  121  A    between atoms: _297  and  _298
REMARK  122  A    between atoms: _297  and  _300
REMARK  123  A    between atoms: _300  and  _301
REMARK  124  A    between atoms: _304  and  _306
REMARK  125  A    between atoms: _306  and  _307
REMARK  126  A    between atoms: _306  and  _309
REMARK  127  A    between atoms: _309  and  _310
REMARK  128  A    between atoms: _313  and  _315
REMARK  129  A    between atoms: _315  and  _316
REMARK  130  A    between atoms: _315  and  _318
REMARK  131  A    between atoms: _321  and  _323
REMARK  132  A    between atoms: _323  and  _324
REMARK  133  A    between atoms: _323  and  _326
REMARK  134  A    between atoms: _326  and  _327
REMARK  135  A    between atoms: _327  and  _328
REMARK  136  A    between atoms: _328  and  _329
REMARK  137  A    between atoms: _329  and  _330
REMARK  138  A    between atoms: _334  and  _336
REMARK  139  A    between atoms: _336  and  _337
REMARK  140  A    between atoms: _336  and  _339
REMARK  141  A    between atoms: _339  and  _340
REMARK  142  A    between atoms: _340  and  _341
REMARK  143  A    between atoms: _343  and  _345
REMARK  144  A    between atoms: _345  and  _346
REMARK  145  A    between atoms: _345  and  _348
REMARK  146  A    between atoms: _348  and  _349
REMARK  147  A    between atoms: _352  and  _354
REMARK  148  A    between atoms: _354  and  _355
REMARK  149  A    between atoms: _357  and  _359
REMARK  150  A    between atoms: _359  and  _360
REMARK  151  A    between atoms: _362  and  _364
REMARK  152  A    between atoms: _364  and  _365
REMARK  153  A    between atoms: _364  and  _367
REMARK  154  A    between atoms: _367  and  _368
REMARK  155  A    between atoms: _371  and  _373
REMARK  156  A    between atoms: _373  and  _374
REMARK  157  A    between atoms: _376  and  _378
REMARK  158  A    between atoms: _378  and  _379
REMARK  159  A    between atoms: _381  and  _383
REMARK  160  A    between atoms: _383  and  _384
REMARK  161  A    between atoms: _383  and  _386
REMARK  162  A    between atoms: _386  and  _387
REMARK  163  A    between atoms: _393  and  _395
REMARK  164  A    between atoms: _395  and  _396
REMARK  165  A    between atoms: _395  and  _398
REMARK  166  A    between atoms: _398  and  _399
REMARK  167  A    between atoms: _402  and  _404
REMARK  168  A    between atoms: _404  and  _405
REMARK  169  A    between atoms: _404  and  _407
REMARK  170  A    between atoms: _410  and  _412
REMARK  171  A    between atoms: _412  and  _413
REMARK  172  A    between atoms: _412  and  _415
REMARK  173  A    between atoms: _415  and  _416
REMARK  174  A    between atoms: _420  and  _421
REMARK  175  A    between atoms: _426  and  _428
REMARK  176  A    between atoms: _428  and  _429
REMARK  177  A    between atoms: _428  and  _431
REMARK  178  A    between atoms: _431  and  _432
REMARK  179  A    between atoms: _436  and  _437
REMARK  180  A    between atoms: _442  and  _444
REMARK  181  A    between atoms: _444  and  _445
REMARK  182  A    between atoms: _444  and  _447
REMARK  183  A    between atoms: _450  and  _452
REMARK  184  A    between atoms: _452  and  _453
REMARK  185  A    between atoms: _452  and  _455
REMARK  186  A    between atoms: _455  and  _456
REMARK  187  A    between atoms: _461  and  _463
REMARK  188  A    between atoms: _463  and  _464
REMARK  189  A    between atoms: _463  and  _466
REMARK  190  A    between atoms: _466  and  _467
REMARK  191  A    between atoms: _470  and  _472
REMARK  192  A    between atoms: _472  and  _473
REMARK  193  A    between atoms: _472  and  _475
REMARK  194  A    between atoms: _475  and  _476
REMARK  195  A    between atoms: _479  and  _481
REMARK  196  A    between atoms: _481  and  _482
REMARK  197  A    between atoms: _484  and  _486
REMARK  198  A    between atoms: _486  and  _487
REMARK  199  A    between atoms: _486  and  _489
REMARK  200  A    between atoms: _489  and  _490
REMARK  201  A    between atoms: _490  and  _491
REMARK  202  A    between atoms: _491  and  _492
REMARK  203  A    between atoms: _501  and  _503
REMARK  204  A    between atoms: _503  and  _504
REMARK  205  A    between atoms: _503  and  _506
REMARK  206  A    between atoms: _506  and  _507
REMARK                            x       y       z     vdW  Elec       q    Type
REMARK                         _______ _______ _______ _____ _____    ______ ____
ROOT
ATOM      1  NE  ARG A   1      -4.129  23.626  22.092  0.00  0.00    -0.265 N 
ATOM      2  HE  ARG A   1      -5.050  23.145  22.135  0.00  0.00    +0.259 HD
ATOM      3  CZ  ARG A   1      -3.127  22.970  21.493  0.00  0.00    +0.342 C 
ATOM      4  NH2 ARG A   1      -1.903  23.492  21.355  0.00  0.00    -0.292 N 
ATOM      5 HH21 ARG A   1      -1.700  24.444  21.720  0.00  0.00    +0.255 HD
ATOM      6 HH22 ARG A   1      -1.155  22.946  20.882  0.00  0.00    +0.255 HD
ATOM      7  NH1 ARG A   1      -3.318  21.783  20.878  0.00  0.00    -0.292 N 
ATOM      8 HH11 ARG A   1      -4.265  21.353  20.860  0.00  0.00    +0.255 HD
ATOM      9 HH12 ARG A   1      -2.518  21.299  20.422  0.00  0.00    +0.255 HD
ENDROOT
BRANCH   1  10
ATOM     10  CD  ARG A   1      -4.046  24.954  22.690  0.00  0.00    +0.174 C 
BRANCH  10  11
ATOM     11  CG  ARG A   1      -5.108  25.907  22.199  0.00  0.00    +0.045 C 
BRANCH  11  12
ATOM     12  CB  ARG A   1      -5.164  27.220  22.955  0.00  0.00    +0.029 C 
BRANCH  12  13
ATOM     13  CA  ARG A   1      -6.485  27.945  22.607  0.00  0.00    +0.133 C 
BRANCH  13  14
ATOM     14  N   ARG A   1      -6.264  28.558  21.283  0.00  0.00    -0.239 NA
ATOM     15  H   ARG A   1      -5.443  28.286  20.706  0.00  0.00    +0.142 HD
ENDBRANCH  13  14
BRANCH  13  16
ATOM     16  C   ARG A   1      -6.712  28.968  23.714  0.00  0.00    +0.224 C 
ATOM     17  O   ARG A   1      -5.930  29.953  23.777  0.00  0.00    -0.287 OA
ENDBRANCH  13  16
ENDBRANCH  12  13
ENDBRANCH  11  12
ENDBRANCH  10  11
ENDBRANCH   1  10
TORSDOF 6
REMARK  Name = ../refined-set-2016/1gno/1gno_pocket.pdb
REMARK  206 active torsions:
REMARK  status: ('A' for Active; 'I' for Inactive)
REMARK    1  A    between atoms: _1  and  _3
REMARK    2  A    between atoms: _3  and  _4
REMARK    3  A    between atoms: _3  and  _6
REMARK    4  A    between atoms: _6  and  _7
REMARK    5  A    between atoms: _7  and  _8
REMARK    6  A    between atoms: _8  and  _9
REMARK    7  A    between atoms: _18  and  _20
REMARK    8  A    between atoms: _20  and  _21
REMARK    9  A    between atoms: _20  and  _23
REMARK   10  A    between atoms: _23  and  _24
REMARK   11  A    between atoms: _27  and  _29
REMARK   12  A    between atoms: _29  and  _30
REMARK   13  A    between atoms: _29  and  _32
REMARK   14  A    between atoms: _32  and  _33
REMARK   15  A    between atoms: _36  and  _38
REMARK   16  A    between atoms: _38  and  _39
REMARK   17  A    between atoms: _38  and  _41
REMARK   18  A    between atoms: _41  and  _42
REMARK   19  A    between atoms: _45  and  _47
REMARK   20  A    between atoms: _47  and  _48
REMARK   21  A    between atoms: _47  and  _50
REMARK   22  A    between atoms: _50  and  _51
REMARK   23  A    between atoms: _54  and  _56
REMARK   24  A    between atoms: _56  and  _57
REMARK   25  A    between atoms: _59  and  _61
REMARK   26  A    between atoms: _61  and  _62
REMARK   27  A    between atoms: _65  and  _67
REMARK   28  A    between atoms: _67  and  _68
REMARK   29  A    between atoms: _67  and  _70
REMARK   30  A    between atoms: _70  and  _71
REMARK   31  A    between atoms: _74  and  _76
REMARK   32  A    between atoms: _76  and  _77
REMARK   33  A    between atoms: _76  and  _79
REMARK   34  A    between atoms: _79  and  _80
REMARK   35  A    between atoms: _83  and  _85
REMARK   36  A    between atoms: _85  and  _86
REMARK   37  A    between atoms: _85  and  _88
REMARK   38  A    between atoms: _88  and  _89
REMARK   39  A    between atoms: _92  and  _94
REMARK   40  A    between atoms: _94  and  _95
REMARK   41  A    between atoms: _94  and  _97
REMARK   42  A    between atoms: _100  and  _102
REMARK   43  A    between atoms: _102  and  _103
REMARK   44  A    between atoms: _102  and  _105
REMARK   45  A    between atoms: _105  and  _106
REMARK   46  A    between atoms: _109  and  _111
REMARK   47  A    between atoms: _111  and  _112
REMARK   48  A    between atoms: _114  and  _116
REMARK   49  A    between atoms: _116  and  _117
REMARK   50  A    between atoms: _119  and  _121
REMARK   51  A    between atoms: _121  and  _122
REMARK   52  A    between atoms: _121  and  _124
REMARK   53  A    between atoms: _124  and  _125
REMARK   54  A    between atoms: _128  and  _130
REMARK   55  A    between atoms: _130  and  _131
REMARK   56  A    between atoms: _133  and  _135
REMARK   57  A    between atoms: _135  and  _136
REMARK   58  A    between atoms: _138  and  _140
REMARK   59  A    between atoms: _140  and  _141
REMARK   60  A    between atoms: _140  and  _143
REMARK   61  A    between atoms: _143  and  _144
REMARK   62  A    between atoms: _147  and  _149
REMARK   63  A    between atoms: _149  and  _150
REMARK   64  A    between atoms: _149  and  _152
REMARK   65  A    between atoms: _152  and  _153
REMARK   66  A    between atoms: _157  and  _158
REMARK   67  A    between atoms: _163  and  _165
REMARK   68  A    between atoms: _165  and  _166
REMARK   69  A    between atoms: _165  and  _168
REMARK   70  A    between atoms: _171  and  _173
REMARK   71  A    between atoms: _173  and  _174
REMARK   72  A    between atoms: _173  and  _176
REMARK   73  A    between atoms: _176  and  _177
REMARK   74  A    between atoms: _182  and  _184
REMARK   75  A    between atoms: _184  and  _185
REMARK   76  A    between atoms: _184  and  _187
REMARK   77  A    between atoms: _187  and  _188
REMARK   78  A    between atoms: _191  and  _193
REMARK   79  A    between atoms: _193  and  _194
REMARK   80  A    between atoms: _193  and  _196
REMARK   81  A    between atoms: _196  and  _197
REMARK   82  A    between atoms: _200  and  _202
REMARK   83  A    between atoms: _202  and  _203
REMARK   84  A    between atoms: _205  and  _207
REMARK   85  A    between atoms: _207  and  _208
REMARK   86  A    between atoms: _207  and  _210
REMARK   87  A    between atoms: _210  and  _211
REMARK   88  A    between atoms: _211  and  _212
REMARK   89  A    between atoms: _212  and  _213
REMARK   90  A    between atoms: _222  and  _224
REMARK   91  A    between atoms: _224  and  _225
REMARK   92  A    between atoms: _224  and  _227
REMARK   93  A    between atoms: _227  and  _228
REMARK   94  A    between atoms: _228  and  _229
REMARK   95  A    between atoms: _229  and  _230
REMARK   96  A    between atoms: _239  and  _241
REMARK   97  A    between atoms: _241  and  _242
REMARK   98  A    between atoms: _241  and  _244
REMARK   99  A    between atoms: _244  and  _245
REMARK  100  A    between atoms: _248  and  _250
REMARK  101  A    between atoms: _250  and  _251
REMARK  102  A    between atoms: _250  and  _253
REMARK  103  A    between atoms: _253  and  _254
REMARK  104  A    between atoms: _257  and  _259
REMARK  105  A    between atoms: _259  and  _260
REMARK  106  A    between atoms: _259  and  _262
REMARK  107  A    between atoms: _262  and  _263
REMARK  108  A    between atoms: _266  and  _268
REMARK  109  A    between atoms: _268  and  _269
REMARK  110  A    between atoms: _268  and  _271
REMARK  111  A    between atoms: _271  and  _272
REMARK  112  A    between atoms: _275  and  _277
REMARK  113  A    between atoms: _277  and  _278
REMARK  114  A    between atoms: _280  and  _282
REMARK  115  A    between atoms: _282  and  _283
REMARK  116  A    between atoms: _286  and  _288
REMARK  117  A    between atoms: _288  and  _289
REMARK  118  A    between atoms: _288  and  _291
REMARK  119  A    between atoms: _291  and  _292
REMARK  120  A    between atoms: _295  and  _297
REMARK  121  A    between atoms: _297  and  _298
REMARK  122  A    between atoms: _297  and  _300
REMARK  123  A    between atoms: _300  and  _301
REMARK  124  A    between atoms: _304  and  _306
REMARK  125  A    between atoms: _306  and  _307
REMARK  126  A    between atoms: _306  and  _309
REMARK  127  A    between atoms: _309  and  _310
REMARK  128  A    between atoms: _313  and  _315
REMARK  129  A    between atoms: _315  and  _316
REMARK  130  A    between atoms: _315  and  _318
REMARK  131  A    between atoms: _321  and  _323
REMARK  132  A    between atoms: _323  and  _324
REMARK  133  A    between atoms: _323  and  _326
REMARK  134  A    between atoms: _326  and  _327
REMARK  135  A    between atoms: _327  and  _328
REMARK  136  A    between atoms: _328  and  _329
REMARK  137  A    between atoms: _329  and  _330
REMARK  138  A    between atoms: _334  and  _336
REMARK  139  A    between atoms: _336  and  _337
REMARK  140  A    between atoms: _336  and  _339
REMARK  141  A    between atoms: _339  and  _340
REMARK  142  A    between atoms: _340  and  _341
REMARK  143  A    between atoms: _343  and  _345
REMARK  144  A    between atoms: _345  and  _346
REMARK  145  A    between atoms: _345  and  _348
REMARK  146  A    between atoms: _348  and  _349
REMARK  147  A    between atoms: _352  and  _354
REMARK  148  A    between atoms: _354  and  _355
REMARK  149  A    between atoms: _357  and  _359
REMARK  150  A    between atoms: _359  and  _360
REMARK  151  A    between atoms: _362  and  _364
REMARK  152  A    between atoms: _364  and  _365
REMARK  153  A    between atoms: _364  and  _367
REMARK  154  A    between atoms: _367  and  _368
REMARK  155  A    between atoms: _371  and  _373
REMARK  156  A    between atoms: _373  and  _374
REMARK  157  A    between atoms: _376  and  _378
REMARK  158  A    between atoms: _378  and  _379
REMARK  159  A    between atoms: _381  and  _383
REMARK  160  A    between atoms: _383  and  _384
REMARK  161  A    between atoms: _383  and  _386
REMARK  162  A    between atoms: _386  and  _387
REMARK  163  A    between atoms: _393  and  _395
REMARK  164  A    between atoms: _395  and  _396
REMARK  165  A    between atoms: _395  and  _398
REMARK  166  A    between atoms: _398  and  _399
REMARK  167  A    between atoms: _402  and  _404
REMARK  168  A    between atoms: _404  and  _405
REMARK  169  A    between atoms: _404  and  _407
REMARK  170  A    between atoms: _410  and  _412
REMARK  171  A    between atoms: _412  and  _413
REMARK  172  A    between atoms: _412  and  _415
REMARK  173  A    between atoms: _415  and  _416
REMARK  174  A    between atoms: _420  and  _421
REMARK  175  A    between atoms: _426  and  _428
REMARK  176  A    between atoms: _428  and  _429
REMARK  177  A    between atoms: _428  and  _431
REMARK  178  A    between atoms: _431  and  _432
REMARK  179  A    between atoms: _436  and  _437
REMARK  180  A    between atoms: _442  and  _444
REMARK  181  A    between atoms: _444  and  _445
REMARK  182  A    between atoms: _444  and  _447
REMARK  183  A    between atoms: _450  and  _452
REMARK  184  A    between atoms: _452  and  _453
REMARK  185  A    between atoms: _452  and  _455
REMARK  186  A    between atoms: _455  and  _456
REMARK  187  A    between atoms: _461  and  _463
REMARK  188  A    between atoms: _463  and  _464
REMARK  189  A    between atoms: _463  and  _466
REMARK  190  A    between atoms: _466  and  _467
REMARK  191  A    between atoms: _470  and  _472
REMARK  192  A    between atoms: _472  and  _473
REMARK  193  A    between atoms: _472  and  _475
REMARK  194  A    between atoms: _475  and  _476
REMARK  195  A    between atoms: _479  and  _481
REMARK  196  A    between atoms: _481  and  _482
REMARK  197  A    between atoms: _484  and  _486
REMARK  198  A    between atoms: _486  and  _487
REMARK  199  A    between atoms: _486  and  _489
REMARK  200  A    between atoms: _489  and  _490
REMARK  201  A    between atoms: _490  and  _491
REMARK  202  A    between atoms: _491  and  _492
REMARK  203  A    between atoms: _501  and  _503
REMARK  204  A    between atoms: _503  and  _504
REMARK  205  A    between atoms: _503  and  _506
REMARK  206  A    between atoms: _506  and  _507
REMARK                            x       y       z     vdW  Elec       q    Type
REMARK                         _______ _______ _______ _____ _____    ______ ____
ROOT
ATOM      1  C   GLY A   5     -13.663  18.747  30.672  0.00  0.00    +0.243 C 
ATOM      2  N   ALA A   6     -12.995  19.571  31.487  0.00  0.00    -0.297 N 
ATOM      3  H   ALA A   6     -13.048  20.591  31.289  0.00  0.00    +0.150 HD
ATOM      4  O   GLY A   5     -13.650  17.513  30.860  0.00  0.00    -0.273 OA
ENDROOT
BRANCH   2   5
ATOM      5  CA  ALA A   6     -12.189  19.143  32.645  0.00  0.00    +0.149 C 
ATOM      6  CB  ALA A   6     -10.844  19.854  32.823  0.00  0.00    +0.031 C 
BRANCH   5   7
ATOM      7  C   ALA A   6     -13.025  19.355  33.914  0.00  0.00    +0.241 C 
ATOM      8  N   ASP A   7     -13.383  18.282  34.619  0.00  0.00    -0.297 N 
ATOM      9  H   ASP A   7     -13.149  17.324  34.288  0.00  0.00    +0.150 HD
ATOM     10  O   ALA A   6     -13.383  20.465  34.276  0.00  0.00    -0.273 OA
BRANCH   8  11
ATOM     11  CA  ASP A   7     -14.107  18.483  35.859  0.00  0.00    +0.160 C 
BRANCH  11  12
ATOM     12  C   ASP A   7     -13.119  19.040  36.881  0.00  0.00    +0.241 C 
ATOM     13  O   ASP A   7     -13.613  19.736  37.751  0.00  0.00    -0.273 OA
ATOM     14  N   ASP A   8     -11.835  18.745  36.778  0.00  0.00    -0.297 N 
ATOM     15  H   ASP A   8     -11.520  18.185  35.960  0.00  0.00    +0.150 HD
BRANCH  14  16
ATOM     16  CA  ASP A   8     -10.848  19.163  37.748  0.00  0.00    +0.160 C 
BRANCH  16  17
ATOM     17  C   ASP A   8      -9.723  20.002  37.139  0.00  0.00    +0.241 C 
ATOM     18  N   THR A   9      -8.820  20.424  37.992  0.00  0.00    -0.295 N 
ATOM     19  H   THR A   9      -8.935  20.171  38.994  0.00  0.00    +0.150 HD
ATOM     20  O   ASP A   8      -9.761  20.260  35.950  0.00  0.00    -0.273 OA
BRANCH  18  21
ATOM     21  CA  THR A   9      -7.658  21.232  37.610  0.00  0.00    +0.176 C 
BRANCH  21  22
ATOM     22  C   THR A   9      -6.440  20.324  37.753  0.00  0.00    +0.243 C 
ATOM     23  O   THR A   9      -6.229  19.719  38.782  0.00  0.00    -0.273 OA
ATOM     24  N   VAL A  10      -5.636  20.196  36.723  0.00  0.00    -0.298 N 
ATOM     25  H   VAL A  10      -5.830  20.743  35.860  0.00  0.00    +0.150 HD
BRANCH  24  26
ATOM     26  CA  VAL A  10      -4.466  19.299  36.753  0.00  0.00    +0.137 C 
BRANCH  26  27
ATOM     27  CB  VAL A  10      -4.766  17.899  36.238  0.00  0.00    +0.026 C 
ATOM     28  CG2 VAL A  10      -3.548  17.084  35.838  0.00  0.00    +0.002 C 
ATOM     29  CG1 VAL A  10      -5.755  17.822  35.102  0.00  0.00    +0.002 C 
ENDBRANCH  26  27
BRANCH  26  30
ATOM     30  C   VAL A  10      -3.294  20.028  36.120  0.00  0.00    +0.227 C 
ATOM     31  O   VAL A  10      -3.367  20.568  35.036  0.00  0.00    -0.286 OA
ENDBRANCH  26  30
ENDBRANCH  24  26
ENDBRANCH  21  22
BRANCH  21  32
ATOM     32  CB  THR A   9      -7.472  22.451  38.537  0.00  0.00    +0.137 C 
ATOM     33  CG2 THR A   9      -6.206  23.229  38.263  0.00  0.00    +0.034 C 
BRANCH  32  34
ATOM     34  OG1 THR A   9      -8.594  23.306  38.350  0.00  0.00    -0.382 OA
ATOM     35  HG1 THR A   9      -9.423  22.817  38.583  0.00  0.00    +0.210 HD
ENDBRANCH  32  34
ENDBRANCH  21  32
ENDBRANCH  18  21
ENDBRANCH  16  17
BRANCH  16  36
ATOM     36  CB  ASP A   8     -10.105  18.015  38.402  0.00  0.00    +0.143 C 
BRANCH  36  37
ATOM     37  CG  ASP A   8     -10.954  16.822  38.807  0.00  0.00    +0.367 C 
ATOM     38  OD2 ASP A   8     -11.524  16.883  39.926  0.00  0.00    -0.246 OA
ATOM     39  OD1 ASP A   8     -11.051  15.823  38.045  0.00  0.00    -0.246 OA
ENDBRANCH  36  37
ENDBRANCH  16  36
ENDBRANCH  14  16
ENDBRANCH  11  12
BRANCH  11  40
ATOM     40  CB  ASP A   7     -14.604  17.226  36.530  0.00  0.00    +0.143 C 
BRANCH  40  41
ATOM     41  CG  ASP A   7     -15.572  16.328  35.769  0.00  0.00    +0.367 C 
ATOM     42  OD2 ASP A   7     -15.569  15.093  36.021  0.00  0.00    -0.246 OA
ATOM     43  OD1 ASP A   7     -16.345  16.870  34.923  0.00  0.00    -0.246 OA
ENDBRANCH  40  41
ENDBRANCH  11  40
ENDBRANCH   8  11
ENDBRANCH   5   7
ENDBRANCH   2   5
BRANCH   1  44
ATOM     44  CA  GLY A   5     -14.432  19.373  29.519  0.00  0.00    +0.176 C 
BRANCH  44  47
ATOM     45  C   THR A   4     -15.081  21.645  30.188  0.00  0.00    +0.243 C 
ATOM     46  O   THR A   4     -16.086  21.140  30.740  0.00  0.00    -0.273 OA
ATOM     47  N   GLY A   5     -14.239  20.814  29.563  0.00  0.00    -0.295 N 
ATOM     48  H   GLY A   5     -13.407  21.217  29.086  0.00  0.00    +0.150 HD
BRANCH  45  49
ATOM     49  CA  THR A   4     -14.851  23.141  30.277  0.00  0.00    +0.176 C 
BRANCH  49  52
ATOM     50  C   ASP A   3     -12.348  23.429  30.472  0.00  0.00    +0.241 C 
ATOM     51  O   ASP A   3     -12.313  22.778  31.511  0.00  0.00    -0.273 OA
ATOM     52  N   THR A   4     -13.537  23.613  29.890  0.00  0.00    -0.295 N 
ATOM     53  H   THR A   4     -13.516  24.186  29.022  0.00  0.00    +0.150 HD
BRANCH  50  54
ATOM     54  CA  ASP A   3     -11.035  23.871  29.864  0.00  0.00    +0.160 C 
BRANCH  54  56
ATOM     55  C   LEU A   2     -10.005  26.039  29.730  0.00  0.00    +0.241 C 
ATOM     56  N   ASP A   3     -10.373  25.009  30.481  0.00  0.00    -0.297 N 
ATOM     57  H   ASP A   3     -10.189  25.016  31.505  0.00  0.00    +0.150 HD
ATOM     58  O   LEU A   2     -10.243  26.081  28.512  0.00  0.00    -0.273 OA
BRANCH  55  59
ATOM     59  CA  LEU A   2      -9.261  27.202  30.361  0.00  0.00    +0.149 C 
BRANCH  59  62
ATOM     60  C   LEU A   1      -7.043  26.272  30.127  0.00  0.00    +0.238 C 
ATOM     61  O   LEU A   1      -7.268  25.461  31.038  0.00  0.00    -0.274 OA
ATOM     62  N   LEU A   2      -7.905  27.228  29.832  0.00  0.00    -0.297 N 
ATOM     63  H   LEU A   2      -7.611  28.010  29.213  0.00  0.00    +0.150 HD
BRANCH  60  64
ATOM     64  CA  LEU A   1      -5.748  26.125  29.380  0.00  0.00    +0.145 C 
BRANCH  64  65
ATOM     65  N   LEU A   1      -4.673  26.050  30.381  0.00  0.00    -0.238 NA
ATOM     66  H   LEU A   1      -4.384  25.140  30.794  0.00  0.00    +0.142 HD
ENDBRANCH  64  65
BRANCH  64  67
ATOM     67  CB  LEU A   1      -5.701  24.807  28.624  0.00  0.00    +0.026 C 
BRANCH  67  68
ATOM     68  CG  LEU A   1      -6.536  24.570  27.374  0.00  0.00    +0.002 C 
ATOM     69  CD2 LEU A   1      -6.077  23.385  26.551  0.00  0.00    +0.000 C 
ATOM     70  CD1 LEU A   1      -6.340  25.704  26.401  0.00  0.00    +0.000 C 
ENDBRANCH  67  68
ENDBRANCH  64  67
ENDBRANCH  60  64
ENDBRANCH  59  62
BRANCH  59  71
ATOM     71  CB  LEU A   2      -9.963  28.502  30.020  0.00  0.00    +0.029 C 
BRANCH  71  72
ATOM     72  CG  LEU A   2      -9.928  29.582  31.103  0.00  0.00    +0.002 C 
ATOM     73  CD2 LEU A   2      -8.665  29.425  31.946  0.00  0.00    +0.000 C 
ATOM     74  CD1 LEU A   2      -9.993  30.940  30.447  0.00  0.00    +0.000 C 
ENDBRANCH  71  72
ENDBRANCH  59  71
ENDBRANCH  55  59
ENDBRANCH  54  56
BRANCH  54  75
ATOM     75  CB  ASP A   3     -10.005  22.736  29.927  0.00  0.00    +0.143 C 
BRANCH  75  76
ATOM     76  CG  ASP A   3     -10.373  21.478  29.235  0.00  0.00    +0.367 C 
ATOM     77  OD2 ASP A   3      -9.627  20.491  29.171  0.00  0.00    -0.246 OA
ATOM     78  OD1 ASP A   3     -11.483  21.348  28.673  0.00  0.00    -0.246 OA
ENDBRANCH  75  76
ENDBRANCH  54  75
ENDBRANCH  50  54
ENDBRANCH  49  52
BRANCH  49  79
ATOM     79  CB  THR A   4     -15.920  23.835  29.419  0.00  0.00    +0.137 C 
ATOM     80  CG2 THR A   4     -15.876  25.334  29.731  0.00  0.00    +0.034 C 
BRANCH  79  81
ATOM     81  OG1 THR A   4     -15.667  23.853  28.001  0.00  0.00    -0.382 OA
ATOM     82  HG1 THR A   4     -15.602  22.923  27.667  0.00  0.00    +0.210 HD
ENDBRANCH  79  81
ENDBRANCH  49  79
ENDBRANCH  45  49
ENDBRANCH  44  47
ENDBRANCH   1  44
TORSDOF 35
REMARK  Name = ../refined-set-2016/1gno/1gno_pocket.pdb
REMARK  206 active torsions:
REMARK  status: ('A' for Active; 'I' for Inactive)
REMARK    1  A    between atoms: _1  and  _3
REMARK    2  A    between atoms: _3  and  _4
REMARK    3  A    between atoms: _3  and  _6
REMARK    4  A    between atoms: _6  and  _7
REMARK    5  A    between atoms: _7  and  _8
REMARK    6  A    between atoms: _8  and  _9
REMARK    7  A    between atoms: _18  and  _20
REMARK    8  A    between atoms: _20  and  _21
REMARK    9  A    between atoms: _20  and  _23
REMARK   10  A    between atoms: _23  and  _24
REMARK   11  A    between atoms: _27  and  _29
REMARK   12  A    between atoms: _29  and  _30
REMARK   13  A    between atoms: _29  and  _32
REMARK   14  A    between atoms: _32  and  _33
REMARK   15  A    between atoms: _36  and  _38
REMARK   16  A    between atoms: _38  and  _39
REMARK   17  A    between atoms: _38  and  _41
REMARK   18  A    between atoms: _41  and  _42
REMARK   19  A    between atoms: _45  and  _47
REMARK   20  A    between atoms: _47  and  _48
REMARK   21  A    between atoms: _47  and  _50
REMARK   22  A    between atoms: _50  and  _51
REMARK   23  A    between atoms: _54  and  _56
REMARK   24  A    between atoms: _56  and  _57
REMARK   25  A    between atoms: _59  and  _61
REMARK   26  A    between atoms: _61  and  _62
REMARK   27  A    between atoms: _65  and  _67
REMARK   28  A    between atoms: _67  and  _68
REMARK   29  A    between atoms: _67  and  _70
REMARK   30  A    between atoms: _70  and  _71
REMARK   31  A    between atoms: _74  and  _76
REMARK   32  A    between atoms: _76  and  _77
REMARK   33  A    between atoms: _76  and  _79
REMARK   34  A    between atoms: _79  and  _80
REMARK   35  A    between atoms: _83  and  _85
REMARK   36  A    between atoms: _85  and  _86
REMARK   37  A    between atoms: _85  and  _88
REMARK   38  A    between atoms: _88  and  _89
REMARK   39  A    between atoms: _92  and  _94
REMARK   40  A    between atoms: _94  and  _95
REMARK   41  A    between atoms: _94  and  _97
REMARK   42  A    between atoms: _100  and  _102
REMARK   43  A    between atoms: _102  and  _103
REMARK   44  A    between atoms: _102  and  _105
REMARK   45  A    between atoms: _105  and  _106
REMARK   46  A    between atoms: _109  and  _111
REMARK   47  A    between atoms: _111  and  _112
REMARK   48  A    between atoms: _114  and  _116
REMARK   49  A    between atoms: _116  and  _117
REMARK   50  A    between atoms: _119  and  _121
REMARK   51  A    between atoms: _121  and  _122
REMARK   52  A    between atoms: _121  and  _124
REMARK   53  A    between atoms: _124  and  _125
REMARK   54  A    between atoms: _128  and  _130
REMARK   55  A    between atoms: _130  and  _131
REMARK   56  A    between atoms: _133  and  _135
REMARK   57  A    between atoms: _135  and  _136
REMARK   58  A    between atoms: _138  and  _140
REMARK   59  A    between atoms: _140  and  _141
REMARK   60  A    between atoms: _140  and  _143
REMARK   61  A    between atoms: _143  and  _144
REMARK   62  A    between atoms: _147  and  _149
REMARK   63  A    between atoms: _149  and  _150
REMARK   64  A    between atoms: _149  and  _152
REMARK   65  A    between atoms: _152  and  _153
REMARK   66  A    between atoms: _157  and  _158
REMARK   67  A    between atoms: _163  and  _165
REMARK   68  A    between atoms: _165  and  _166
REMARK   69  A    between atoms: _165  and  _168
REMARK   70  A    between atoms: _171  and  _173
REMARK   71  A    between atoms: _173  and  _174
REMARK   72  A    between atoms: _173  and  _176
REMARK   73  A    between atoms: _176  and  _177
REMARK   74  A    between atoms: _182  and  _184
REMARK   75  A    between atoms: _184  and  _185
REMARK   76  A    between atoms: _184  and  _187
REMARK   77  A    between atoms: _187  and  _188
REMARK   78  A    between atoms: _191  and  _193
REMARK   79  A    between atoms: _193  and  _194
REMARK   80  A    between atoms: _193  and  _196
REMARK   81  A    between atoms: _196  and  _197
REMARK   82  A    between atoms: _200  and  _202
REMARK   83  A    between atoms: _202  and  _203
REMARK   84  A    between atoms: _205  and  _207
REMARK   85  A    between atoms: _207  and  _208
REMARK   86  A    between atoms: _207  and  _210
REMARK   87  A    between atoms: _210  and  _211
REMARK   88  A    between atoms: _211  and  _212
REMARK   89  A    between atoms: _212  and  _213
REMARK   90  A    between atoms: _222  and  _224
REMARK   91  A    between atoms: _224  and  _225
REMARK   92  A    between atoms: _224  and  _227
REMARK   93  A    between atoms: _227  and  _228
REMARK   94  A    between atoms: _228  and  _229
REMARK   95  A    between atoms: _229  and  _230
REMARK   96  A    between atoms: _239  and  _241
REMARK   97  A    between atoms: _241  and  _242
REMARK   98  A    between atoms: _241  and  _244
REMARK   99  A    between atoms: _244  and  _245
REMARK  100  A    between atoms: _248  and  _250
REMARK  101  A    between atoms: _250  and  _251
REMARK  102  A    between atoms: _250  and  _253
REMARK  103  A    between atoms: _253  and  _254
REMARK  104  A    between atoms: _257  and  _259
REMARK  105  A    between atoms: _259  and  _260
REMARK  106  A    between atoms: _259  and  _262
REMARK  107  A    between atoms: _262  and  _263
REMARK  108  A    between atoms: _266  and  _268
REMARK  109  A    between atoms: _268  and  _269
REMARK  110  A    between atoms: _268  and  _271
REMARK  111  A    between atoms: _271  and  _272
REMARK  112  A    between atoms: _275  and  _277
REMARK  113  A    between atoms: _277  and  _278
REMARK  114  A    between atoms: _280  and  _282
REMARK  115  A    between atoms: _282  and  _283
REMARK  116  A    between atoms: _286  and  _288
REMARK  117  A    between atoms: _288  and  _289
REMARK  118  A    between atoms: _288  and  _291
REMARK  119  A    between atoms: _291  and  _292
REMARK  120  A    between atoms: _295  and  _297
REMARK  121  A    between atoms: _297  and  _298
REMARK  122  A    between atoms: _297  and  _300
REMARK  123  A    between atoms: _300  and  _301
REMARK  124  A    between atoms: _304  and  _306
REMARK  125  A    between atoms: _306  and  _307
REMARK  126  A    between atoms: _306  and  _309
REMARK  127  A    between atoms: _309  and  _310
REMARK  128  A    between atoms: _313  and  _315
REMARK  129  A    between atoms: _315  and  _316
REMARK  130  A    between atoms: _315  and  _318
REMARK  131  A    between atoms: _321  and  _323
REMARK  132  A    between atoms: _323  and  _324
REMARK  133  A    between atoms: _323  and  _326
REMARK  134  A    between atoms: _326  and  _327
REMARK  135  A    between atoms: _327  and  _328
REMARK  136  A    between atoms: _328  and  _329
REMARK  137  A    between atoms: _329  and  _330
REMARK  138  A    between atoms: _334  and  _336
REMARK  139  A    between atoms: _336  and  _337
REMARK  140  A    between atoms: _336  and  _339
REMARK  141  A    between atoms: _339  and  _340
REMARK  142  A    between atoms: _340  and  _341
REMARK  143  A    between atoms: _343  and  _345
REMARK  144  A    between atoms: _345  and  _346
REMARK  145  A    between atoms: _345  and  _348
REMARK  146  A    between atoms: _348  and  _349
REMARK  147  A    between atoms: _352  and  _354
REMARK  148  A    between atoms: _354  and  _355
REMARK  149  A    between atoms: _357  and  _359
REMARK  150  A    between atoms: _359  and  _360
REMARK  151  A    between atoms: _362  and  _364
REMARK  152  A    between atoms: _364  and  _365
REMARK  153  A    between atoms: _364  and  _367
REMARK  154  A    between atoms: _367  and  _368
REMARK  155  A    between atoms: _371  and  _373
REMARK  156  A    between atoms: _373  and  _374
REMARK  157  A    between atoms: _376  and  _378
REMARK  158  A    between atoms: _378  and  _379
REMARK  159  A    between atoms: _381  and  _383
REMARK  160  A    between atoms: _383  and  _384
REMARK  161  A    between atoms: _383  and  _386
REMARK  162  A    between atoms: _386  and  _387
REMARK  163  A    between atoms: _393  and  _395
REMARK  164  A    between atoms: _395  and  _396
REMARK  165  A    between atoms: _395  and  _398
REMARK  166  A    between atoms: _398  and  _399
REMARK  167  A    between atoms: _402  and  _404
REMARK  168  A    between atoms: _404  and  _405
REMARK  169  A    between atoms: _404  and  _407
REMARK  170  A    between atoms: _410  and  _412
REMARK  171  A    between atoms: _412  and  _413
REMARK  172  A    between atoms: _412  and  _415
REMARK  173  A    between atoms: _415  and  _416
REMARK  174  A    between atoms: _420  and  _421
REMARK  175  A    between atoms: _426  and  _428
REMARK  176  A    between atoms: _428  and  _429
REMARK  177  A    between atoms: _428  and  _431
REMARK  178  A    between atoms: _431  and  _432
REMARK  179  A    between atoms: _436  and  _437
REMARK  180  A    between atoms: _442  and  _444
REMARK  181  A    between atoms: _444  and  _445
REMARK  182  A    between atoms: _444  and  _447
REMARK  183  A    between atoms: _450  and  _452
REMARK  184  A    between atoms: _452  and  _453
REMARK  185  A    between atoms: _452  and  _455
REMARK  186  A    between atoms: _455  and  _456
REMARK  187  A    between atoms: _461  and  _463
REMARK  188  A    between atoms: _463  and  _464
REMARK  189  A    between atoms: _463  and  _466
REMARK  190  A    between atoms: _466  and  _467
REMARK  191  A    between atoms: _470  and  _472
REMARK  192  A    between atoms: _472  and  _473
REMARK  193  A    between atoms: _472  and  _475
REMARK  194  A    between atoms: _475  and  _476
REMARK  195  A    between atoms: _479  and  _481
REMARK  196  A    between atoms: _481  and  _482
REMARK  197  A    between atoms: _484  and  _486
REMARK  198  A    between atoms: _486  and  _487
REMARK  199  A    between atoms: _486  and  _489
REMARK  200  A    between atoms: _489  and  _490
REMARK  201  A    between atoms: _490  and  _491
REMARK  202  A    between atoms: _491  and  _492
REMARK  203  A    between atoms: _501  and  _503
REMARK  204  A    between atoms: _503  and  _504
REMARK  205  A    between atoms: _503  and  _506
REMARK  206  A    between atoms: _506  and  _507
REMARK                            x       y       z     vdW  Elec       q    Type
REMARK                         _______ _______ _______ _____ _____    ______ ____
ROOT
ATOM      1  C   GLY A   3      -9.212  10.869  28.640  0.00  0.00    +0.243 C 
ATOM      2  O   GLY A   3      -9.717   9.759  28.679  0.00  0.00    -0.273 OA
ATOM      3  N   ILE A   4      -8.709  11.332  27.519  0.00  0.00    -0.297 N 
ATOM      4  H   ILE A   4      -8.146  12.206  27.550  0.00  0.00    +0.150 HD
ENDROOT
BRANCH   3   5
ATOM      5  CA  ILE A   4      -8.903  10.682  26.245  0.00  0.00    +0.149 C 
BRANCH   5   6
ATOM      6  C   ILE A   4      -8.125   9.428  26.003  0.00  0.00    +0.241 C 
ATOM      7  N   GLY A   5      -6.837   9.207  26.101  0.00  0.00    -0.295 N 
ATOM      8  H   GLY A   5      -6.189   9.951  26.429  0.00  0.00    +0.150 HD
ATOM      9  O   ILE A   4      -8.882   8.463  25.704  0.00  0.00    -0.273 OA
BRANCH   7  10
ATOM     10  CA  GLY A   5      -6.336   7.873  25.732  0.00  0.00    +0.176 C 
BRANCH  10  11
ATOM     11  C   GLY A   5      -6.041   7.007  26.944  0.00  0.00    +0.243 C 
ATOM     12  N   GLY A   6      -6.610   7.368  28.081  0.00  0.00    -0.296 N 
ATOM     13  H   GLY A   6      -7.196   8.227  28.072  0.00  0.00    +0.150 HD
ATOM     14  O   GLY A   5      -5.293   6.028  26.876  0.00  0.00    -0.273 OA
BRANCH  12  15
ATOM     15  CA  GLY A   6      -6.482   6.666  29.330  0.00  0.00    +0.163 C 
BRANCH  15  16
ATOM     16  C   GLY A   6      -6.579   7.428  30.652  0.00  0.00    +0.229 C 
ATOM     17  O   GLY A   6      -7.164   8.507  30.841  0.00  0.00    -0.286 OA
ENDBRANCH  15  16
ENDBRANCH  12  15
ENDBRANCH  10  11
ENDBRANCH   7  10
ENDBRANCH   5   6
BRANCH   5  18
ATOM     18  CB  ILE A   4      -8.846  11.621  25.025  0.00  0.00    +0.027 C 
ATOM     19  CG2 ILE A   4      -7.799  11.242  24.009  0.00  0.00    +0.002 C 
BRANCH  18  20
ATOM     20  CG1 ILE A   4     -10.276  11.506  24.431  0.00  0.00    +0.002 C 
ATOM     21  CD1 ILE A   4     -10.859  12.861  24.085  0.00  0.00    +0.000 C 
ENDBRANCH  18  20
ENDBRANCH   5  18
ENDBRANCH   3   5
BRANCH   1  22
ATOM     22  CA  GLY A   3      -9.077  11.657  29.943  0.00  0.00    +0.176 C 
BRANCH  22  25
ATOM     23  C   GLY A   2      -9.484  10.723  32.165  0.00  0.00    +0.243 C 
ATOM     24  O   GLY A   2     -10.223  11.638  32.502  0.00  0.00    -0.273 OA
ATOM     25  N   GLY A   3      -8.910  10.652  30.990  0.00  0.00    -0.295 N 
ATOM     26  H   GLY A   3      -8.300   9.833  30.791  0.00  0.00    +0.150 HD
BRANCH  23  27
ATOM     27  CA  GLY A   2      -9.172   9.587  33.133  0.00  0.00    +0.176 C 
BRANCH  27  30
ATOM     28  C   ILE A   1      -8.143  10.015  35.291  0.00  0.00    +0.238 C 
ATOM     29  O   ILE A   1      -7.123   9.405  34.980  0.00  0.00    -0.274 OA
ATOM     30  N   GLY A   2      -9.201  10.063  34.503  0.00  0.00    -0.296 N 
ATOM     31  H   GLY A   2     -10.088  10.456  34.878  0.00  0.00    +0.150 HD
BRANCH  28  32
ATOM     32  CA  ILE A   1      -8.256  10.715  36.640  0.00  0.00    +0.145 C 
BRANCH  32  33
ATOM     33  N   ILE A   1      -7.333  10.056  37.538  0.00  0.00    -0.238 NA
ATOM     34  H   ILE A   1      -6.320  10.137  37.319  0.00  0.00    +0.142 HD
ENDBRANCH  32  33
BRANCH  32  35
ATOM     35  CB  ILE A   1      -7.839  12.180  36.481  0.00  0.00    +0.025 C 
ATOM     36  CG2 ILE A   1      -8.116  13.002  37.725  0.00  0.00    +0.002 C 
BRANCH  35  37
ATOM     37  CG1 ILE A   1      -6.331  12.179  36.284  0.00  0.00    +0.002 C 
ATOM     38  CD1 ILE A   1      -5.865  13.575  35.916  0.00  0.00    +0.000 C 
ENDBRANCH  35  37
ENDBRANCH  32  35
ENDBRANCH  28  32
ENDBRANCH  27  30
ENDBRANCH  23  27
ENDBRANCH  22  25
ENDBRANCH   1  22
TORSDOF 16
REMARK  Name = ../refined-set-2016/1gno/1gno_pocket.pdb
REMARK  206 active torsions:
REMARK  status: ('A' for Active; 'I' for Inactive)
REMARK    1  A    between atoms: _1  and  _3
REMARK    2  A    between atoms: _3  and  _4
REMARK    3  A    between atoms: _3  and  _6
REMARK    4  A    between atoms: _6  and  _7
REMARK    5  A    between atoms: _7  and  _8
REMARK    6  A    between atoms: _8  and  _9
REMARK    7  A    between atoms: _18  and  _20
REMARK    8  A    between atoms: _20  and  _21
REMARK    9  A    between atoms: _20  and  _23
REMARK   10  A    between atoms: _23  and  _24
REMARK   11  A    between atoms: _27  and  _29
REMARK   12  A    between atoms: _29  and  _30
REMARK   13  A    between atoms: _29  and  _32
REMARK   14  A    between atoms: _32  and  _33
REMARK   15  A    between atoms: _36  and  _38
REMARK   16  A    between atoms: _38  and  _39
REMARK   17  A    between atoms: _38  and  _41
REMARK   18  A    between atoms: _41  and  _42
REMARK   19  A    between atoms: _45  and  _47
REMARK   20  A    between atoms: _47  and  _48
REMARK   21  A    between atoms: _47  and  _50
REMARK   22  A    between atoms: _50  and  _51
REMARK   23  A    between atoms: _54  and  _56
REMARK   24  A    between atoms: _56  and  _57
REMARK   25  A    between atoms: _59  and  _61
REMARK   26  A    between atoms: _61  and  _62
REMARK   27  A    between atoms: _65  and  _67
REMARK   28  A    between atoms: _67  and  _68
REMARK   29  A    between atoms: _67  and  _70
REMARK   30  A    between atoms: _70  and  _71
REMARK   31  A    between atoms: _74  and  _76
REMARK   32  A    between atoms: _76  and  _77
REMARK   33  A    between atoms: _76  and  _79
REMARK   34  A    between atoms: _79  and  _80
REMARK   35  A    between atoms: _83  and  _85
REMARK   36  A    between atoms: _85  and  _86
REMARK   37  A    between atoms: _85  and  _88
REMARK   38  A    between atoms: _88  and  _89
REMARK   39  A    between atoms: _92  and  _94
REMARK   40  A    between atoms: _94  and  _95
REMARK   41  A    between atoms: _94  and  _97
REMARK   42  A    between atoms: _100  and  _102
REMARK   43  A    between atoms: _102  and  _103
REMARK   44  A    between atoms: _102  and  _105
REMARK   45  A    between atoms: _105  and  _106
REMARK   46  A    between atoms: _109  and  _111
REMARK   47  A    between atoms: _111  and  _112
REMARK   48  A    between atoms: _114  and  _116
REMARK   49  A    between atoms: _116  and  _117
REMARK   50  A    between atoms: _119  and  _121
REMARK   51  A    between atoms: _121  and  _122
REMARK   52  A    between atoms: _121  and  _124
REMARK   53  A    between atoms: _124  and  _125
REMARK   54  A    between atoms: _128  and  _130
REMARK   55  A    between atoms: _130  and  _131
REMARK   56  A    between atoms: _133  and  _135
REMARK   57  A    between atoms: _135  and  _136
REMARK   58  A    between atoms: _138  and  _140
REMARK   59  A    between atoms: _140  and  _141
REMARK   60  A    between atoms: _140  and  _143
REMARK   61  A    between atoms: _143  and  _144
REMARK   62  A    between atoms: _147  and  _149
REMARK   63  A    between atoms: _149  and  _150
REMARK   64  A    between atoms: _149  and  _152
REMARK   65  A    between atoms: _152  and  _153
REMARK   66  A    between atoms: _157  and  _158
REMARK   67  A    between atoms: _163  and  _165
REMARK   68  A    between atoms: _165  and  _166
REMARK   69  A    between atoms: _165  and  _168
REMARK   70  A    between atoms: _171  and  _173
REMARK   71  A    between atoms: _173  and  _174
REMARK   72  A    between atoms: _173  and  _176
REMARK   73  A    between atoms: _176  and  _177
REMARK   74  A    between atoms: _182  and  _184
REMARK   75  A    between atoms: _184  and  _185
REMARK   76  A    between atoms: _184  and  _187
REMARK   77  A    between atoms: _187  and  _188
REMARK   78  A    between atoms: _191  and  _193
REMARK   79  A    between atoms: _193  and  _194
REMARK   80  A    between atoms: _193  and  _196
REMARK   81  A    between atoms: _196  and  _197
REMARK   82  A    between atoms: _200  and  _202
REMARK   83  A    between atoms: _202  and  _203
REMARK   84  A    between atoms: _205  and  _207
REMARK   85  A    between atoms: _207  and  _208
REMARK   86  A    between atoms: _207  and  _210
REMARK   87  A    between atoms: _210  and  _211
REMARK   88  A    between atoms: _211  and  _212
REMARK   89  A    between atoms: _212  and  _213
REMARK   90  A    between atoms: _222  and  _224
REMARK   91  A    between atoms: _224  and  _225
REMARK   92  A    between atoms: _224  and  _227
REMARK   93  A    between atoms: _227  and  _228
REMARK   94  A    between atoms: _228  and  _229
REMARK   95  A    between atoms: _229  and  _230
REMARK   96  A    between atoms: _239  and  _241
REMARK   97  A    between atoms: _241  and  _242
REMARK   98  A    between atoms: _241  and  _244
REMARK   99  A    between atoms: _244  and  _245
REMARK  100  A    between atoms: _248  and  _250
REMARK  101  A    between atoms: _250  and  _251
REMARK  102  A    between atoms: _250  and  _253
REMARK  103  A    between atoms: _253  and  _254
REMARK  104  A    between atoms: _257  and  _259
REMARK  105  A    between atoms: _259  and  _260
REMARK  106  A    between atoms: _259  and  _262
REMARK  107  A    between atoms: _262  and  _263
REMARK  108  A    between atoms: _266  and  _268
REMARK  109  A    between atoms: _268  and  _269
REMARK  110  A    between atoms: _268  and  _271
REMARK  111  A    between atoms: _271  and  _272
REMARK  112  A    between atoms: _275  and  _277
REMARK  113  A    between atoms: _277  and  _278
REMARK  114  A    between atoms: _280  and  _282
REMARK  115  A    between atoms: _282  and  _283
REMARK  116  A    between atoms: _286  and  _288
REMARK  117  A    between atoms: _288  and  _289
REMARK  118  A    between atoms: _288  and  _291
REMARK  119  A    between atoms: _291  and  _292
REMARK  120  A    between atoms: _295  and  _297
REMARK  121  A    between atoms: _297  and  _298
REMARK  122  A    between atoms: _297  and  _300
REMARK  123  A    between atoms: _300  and  _301
REMARK  124  A    between atoms: _304  and  _306
REMARK  125  A    between atoms: _306  and  _307
REMARK  126  A    between atoms: _306  and  _309
REMARK  127  A    between atoms: _309  and  _310
REMARK  128  A    between atoms: _313  and  _315
REMARK  129  A    between atoms: _315  and  _316
REMARK  130  A    between atoms: _315  and  _318
REMARK  131  A    between atoms: _321  and  _323
REMARK  132  A    between atoms: _323  and  _324
REMARK  133  A    between atoms: _323  and  _326
REMARK  134  A    between atoms: _326  and  _327
REMARK  135  A    between atoms: _327  and  _328
REMARK  136  A    between atoms: _328  and  _329
REMARK  137  A    between atoms: _329  and  _330
REMARK  138  A    between atoms: _334  and  _336
REMARK  139  A    between atoms: _336  and  _337
REMARK  140  A    between atoms: _336  and  _339
REMARK  141  A    between atoms: _339  and  _340
REMARK  142  A    between atoms: _340  and  _341
REMARK  143  A    between atoms: _343  and  _345
REMARK  144  A    between atoms: _345  and  _346
REMARK  145  A    between atoms: _345  and  _348
REMARK  146  A    between atoms: _348  and  _349
REMARK  147  A    between atoms: _352  and  _354
REMARK  148  A    between atoms: _354  and  _355
REMARK  149  A    between atoms: _357  and  _359
REMARK  150  A    between atoms: _359  and  _360
REMARK  151  A    between atoms: _362  and  _364
REMARK  152  A    between atoms: _364  and  _365
REMARK  153  A    between atoms: _364  and  _367
REMARK  154  A    between atoms: _367  and  _368
REMARK  155  A    between atoms: _371  and  _373
REMARK  156  A    between atoms: _373  and  _374
REMARK  157  A    between atoms: _376  and  _378
REMARK  158  A    between atoms: _378  and  _379
REMARK  159  A    between atoms: _381  and  _383
REMARK  160  A    between atoms: _383  and  _384
REMARK  161  A    between atoms: _383  and  _386
REMARK  162  A    between atoms: _386  and  _387
REMARK  163  A    between atoms: _393  and  _395
REMARK  164  A    between atoms: _395  and  _396
REMARK  165  A    between atoms: _395  and  _398
REMARK  166  A    between atoms: _398  and  _399
REMARK  167  A    between atoms: _402  and  _404
REMARK  168  A    between atoms: _404  and  _405
REMARK  169  A    between atoms: _404  and  _407
REMARK  170  A    between atoms: _410  and  _412
REMARK  171  A    between atoms: _412  and  _413
REMARK  172  A    between atoms: _412  and  _415
REMARK  173  A    between atoms: _415  and  _416
REMARK  174  A    between atoms: _420  and  _421
REMARK  175  A    between atoms: _426  and  _428
REMARK  176  A    between atoms: _428  and  _429
REMARK  177  A    between atoms: _428  and  _431
REMARK  178  A    between atoms: _431  and  _432
REMARK  179  A    between atoms: _436  and  _437
REMARK  180  A    between atoms: _442  and  _444
REMARK  181  A    between atoms: _444  and  _445
REMARK  182  A    between atoms: _444  and  _447
REMARK  183  A    between atoms: _450  and  _452
REMARK  184  A    between atoms: _452  and  _453
REMARK  185  A    between atoms: _452  and  _455
REMARK  186  A    between atoms: _455  and  _456
REMARK  187  A    between atoms: _461  and  _463
REMARK  188  A    between atoms: _463  and  _464
REMARK  189  A    between atoms: _463  and  _466
REMARK  190  A    between atoms: _466  and  _467
REMARK  191  A    between atoms: _470  and  _472
REMARK  192  A    between atoms: _472  and  _473
REMARK  193  A    between atoms: _472  and  _475
REMARK  194  A    between atoms: _475  and  _476
REMARK  195  A    between atoms: _479  and  _481
REMARK  196  A    between atoms: _481  and  _482
REMARK  197  A    between atoms: _484  and  _486
REMARK  198  A    between atoms: _486  and  _487
REMARK  199  A    between atoms: _486  and  _489
REMARK  200  A    between atoms: _489  and  _490
REMARK  201  A    between atoms: _490  and  _491
REMARK  202  A    between atoms: _491  and  _492
REMARK  203  A    between atoms: _501  and  _503
REMARK  204  A    between atoms: _503  and  _504
REMARK  205  A    between atoms: _503  and  _506
REMARK  206  A    between atoms: _506  and  _507
REMARK                            x       y       z     vdW  Elec       q    Type
REMARK                         _______ _______ _______ _____ _____    ______ ____
ROOT
ATOM      1  CA  ILE A   1      -3.259   8.973  34.881  0.00  0.00    +0.133 C 
ENDROOT
BRANCH   1   2
ATOM      2  N   ILE A   1      -4.524   8.602  34.243  0.00  0.00    -0.239 NA
ATOM      3  H   ILE A   1      -5.363   9.201  34.378  0.00  0.00    +0.142 HD
ENDBRANCH   1   2
BRANCH   1   4
ATOM      4  C   ILE A   1      -3.374   8.950  36.423  0.00  0.00    +0.224 C 
ATOM      5  O   ILE A   1      -4.450   8.955  37.036  0.00  0.00    -0.287 OA
ENDBRANCH   1   4
BRANCH   1   6
ATOM      6  CB  ILE A   1      -2.641  10.311  34.457  0.00  0.00    +0.023 C 
ATOM      7  CG2 ILE A   1      -2.078  10.187  33.042  0.00  0.00    +0.002 C 
BRANCH   6   8
ATOM      8  CG1 ILE A   1      -3.536  11.535  34.535  0.00  0.00    +0.002 C 
ATOM      9  CD1 ILE A   1      -2.745  12.823  34.761  0.00  0.00    +0.000 C 
ENDBRANCH   6   8
ENDBRANCH   1   6
TORSDOF 4
REMARK  Name = ../refined-set-2016/1gno/1gno_pocket.pdb
REMARK  206 active torsions:
REMARK  status: ('A' for Active; 'I' for Inactive)
REMARK    1  A    between atoms: _1  and  _3
REMARK    2  A    between atoms: _3  and  _4
REMARK    3  A    between atoms: _3  and  _6
REMARK    4  A    between atoms: _6  and  _7
REMARK    5  A    between atoms: _7  and  _8
REMARK    6  A    between atoms: _8  and  _9
REMARK    7  A    between atoms: _18  and  _20
REMARK    8  A    between atoms: _20  and  _21
REMARK    9  A    between atoms: _20  and  _23
REMARK   10  A    between atoms: _23  and  _24
REMARK   11  A    between atoms: _27  and  _29
REMARK   12  A    between atoms: _29  and  _30
REMARK   13  A    between atoms: _29  and  _32
REMARK   14  A    between atoms: _32  and  _33
REMARK   15  A    between atoms: _36  and  _38
REMARK   16  A    between atoms: _38  and  _39
REMARK   17  A    between atoms: _38  and  _41
REMARK   18  A    between atoms: _41  and  _42
REMARK   19  A    between atoms: _45  and  _47
REMARK   20  A    between atoms: _47  and  _48
REMARK   21  A    between atoms: _47  and  _50
REMARK   22  A    between atoms: _50  and  _51
REMARK   23  A    between atoms: _54  and  _56
REMARK   24  A    between atoms: _56  and  _57
REMARK   25  A    between atoms: _59  and  _61
REMARK   26  A    between atoms: _61  and  _62
REMARK   27  A    between atoms: _65  and  _67
REMARK   28  A    between atoms: _67  and  _68
REMARK   29  A    between atoms: _67  and  _70
REMARK   30  A    between atoms: _70  and  _71
REMARK   31  A    between atoms: _74  and  _76
REMARK   32  A    between atoms: _76  and  _77
REMARK   33  A    between atoms: _76  and  _79
REMARK   34  A    between atoms: _79  and  _80
REMARK   35  A    between atoms: _83  and  _85
REMARK   36  A    between atoms: _85  and  _86
REMARK   37  A    between atoms: _85  and  _88
REMARK   38  A    between atoms: _88  and  _89
REMARK   39  A    between atoms: _92  and  _94
REMARK   40  A    between atoms: _94  and  _95
REMARK   41  A    between atoms: _94  and  _97
REMARK   42  A    between atoms: _100  and  _102
REMARK   43  A    between atoms: _102  and  _103
REMARK   44  A    between atoms: _102  and  _105
REMARK   45  A    between atoms: _105  and  _106
REMARK   46  A    between atoms: _109  and  _111
REMARK   47  A    between atoms: _111  and  _112
REMARK   48  A    between atoms: _114  and  _116
REMARK   49  A    between atoms: _116  and  _117
REMARK   50  A    between atoms: _119  and  _121
REMARK   51  A    between atoms: _121  and  _122
REMARK   52  A    between atoms: _121  and  _124
REMARK   53  A    between atoms: _124  and  _125
REMARK   54  A    between atoms: _128  and  _130
REMARK   55  A    between atoms: _130  and  _131
REMARK   56  A    between atoms: _133  and  _135
REMARK   57  A    between atoms: _135  and  _136
REMARK   58  A    between atoms: _138  and  _140
REMARK   59  A    between atoms: _140  and  _141
REMARK   60  A    between atoms: _140  and  _143
REMARK   61  A    between atoms: _143  and  _144
REMARK   62  A    between atoms: _147  and  _149
REMARK   63  A    between atoms: _149  and  _150
REMARK   64  A    between atoms: _149  and  _152
REMARK   65  A    between atoms: _152  and  _153
REMARK   66  A    between atoms: _157  and  _158
REMARK   67  A    between atoms: _163  and  _165
REMARK   68  A    between atoms: _165  and  _166
REMARK   69  A    between atoms: _165  and  _168
REMARK   70  A    between atoms: _171  and  _173
REMARK   71  A    between atoms: _173  and  _174
REMARK   72  A    between atoms: _173  and  _176
REMARK   73  A    between atoms: _176  and  _177
REMARK   74  A    between atoms: _182  and  _184
REMARK   75  A    between atoms: _184  and  _185
REMARK   76  A    between atoms: _184  and  _187
REMARK   77  A    between atoms: _187  and  _188
REMARK   78  A    between atoms: _191  and  _193
REMARK   79  A    between atoms: _193  and  _194
REMARK   80  A    between atoms: _193  and  _196
REMARK   81  A    between atoms: _196  and  _197
REMARK   82  A    between atoms: _200  and  _202
REMARK   83  A    between atoms: _202  and  _203
REMARK   84  A    between atoms: _205  and  _207
REMARK   85  A    between atoms: _207  and  _208
REMARK   86  A    between atoms: _207  and  _210
REMARK   87  A    between atoms: _210  and  _211
REMARK   88  A    between atoms: _211  and  _212
REMARK   89  A    between atoms: _212  and  _213
REMARK   90  A    between atoms: _222  and  _224
REMARK   91  A    between atoms: _224  and  _225
REMARK   92  A    between atoms: _224  and  _227
REMARK   93  A    between atoms: _227  and  _228
REMARK   94  A    between atoms: _228  and  _229
REMARK   95  A    between atoms: _229  and  _230
REMARK   96  A    between atoms: _239  and  _241
REMARK   97  A    between atoms: _241  and  _242
REMARK   98  A    between atoms: _241  and  _244
REMARK   99  A    between atoms: _244  and  _245
REMARK  100  A    between atoms: _248  and  _250
REMARK  101  A    between atoms: _250  and  _251
REMARK  102  A    between atoms: _250  and  _253
REMARK  103  A    between atoms: _253  and  _254
REMARK  104  A    between atoms: _257  and  _259
REMARK  105  A    between atoms: _259  and  _260
REMARK  106  A    between atoms: _259  and  _262
REMARK  107  A    between atoms: _262  and  _263
REMARK  108  A    between atoms: _266  and  _268
REMARK  109  A    between atoms: _268  and  _269
REMARK  110  A    between atoms: _268  and  _271
REMARK  111  A    between atoms: _271  and  _272
REMARK  112  A    between atoms: _275  and  _277
REMARK  113  A    between atoms: _277  and  _278
REMARK  114  A    between atoms: _280  and  _282
REMARK  115  A    between atoms: _282  and  _283
REMARK  116  A    between atoms: _286  and  _288
REMARK  117  A    between atoms: _288  and  _289
REMARK  118  A    between atoms: _288  and  _291
REMARK  119  A    between atoms: _291  and  _292
REMARK  120  A    between atoms: _295  and  _297
REMARK  121  A    between atoms: _297  and  _298
REMARK  122  A    between atoms: _297  and  _300
REMARK  123  A    between atoms: _300  and  _301
REMARK  124  A    between atoms: _304  and  _306
REMARK  125  A    between atoms: _306  and  _307
REMARK  126  A    between atoms: _306  and  _309
REMARK  127  A    between atoms: _309  and  _310
REMARK  128  A    between atoms: _313  and  _315
REMARK  129  A    between atoms: _315  and  _316
REMARK  130  A    between atoms: _315  and  _318
REMARK  131  A    between atoms: _321  and  _323
REMARK  132  A    between atoms: _323  and  _324
REMARK  133  A    between atoms: _323  and  _326
REMARK  134  A    between atoms: _326  and  _327
REMARK  135  A    between atoms: _327  and  _328
REMARK  136  A    between atoms: _328  and  _329
REMARK  137  A    between atoms: _329  and  _330
REMARK  138  A    between atoms: _334  and  _336
REMARK  139  A    between atoms: _336  and  _337
REMARK  140  A    between atoms: _336  and  _339
REMARK  141  A    between atoms: _339  and  _340
REMARK  142  A    between atoms: _340  and  _341
REMARK  143  A    between atoms: _343  and  _345
REMARK  144  A    between atoms: _345  and  _346
REMARK  145  A    between atoms: _345  and  _348
REMARK  146  A    between atoms: _348  and  _349
REMARK  147  A    between atoms: _352  and  _354
REMARK  148  A    between atoms: _354  and  _355
REMARK  149  A    between atoms: _357  and  _359
REMARK  150  A    between atoms: _359  and  _360
REMARK  151  A    between atoms: _362  and  _364
REMARK  152  A    between atoms: _364  and  _365
REMARK  153  A    between atoms: _364  and  _367
REMARK  154  A    between atoms: _367  and  _368
REMARK  155  A    between atoms: _371  and  _373
REMARK  156  A    between atoms: _373  and  _374
REMARK  157  A    between atoms: _376  and  _378
REMARK  158  A    between atoms: _378  and  _379
REMARK  159  A    between atoms: _381  and  _383
REMARK  160  A    between atoms: _383  and  _384
REMARK  161  A    between atoms: _383  and  _386
REMARK  162  A    between atoms: _386  and  _387
REMARK  163  A    between atoms: _393  and  _395
REMARK  164  A    between atoms: _395  and  _396
REMARK  165  A    between atoms: _395  and  _398
REMARK  166  A    between atoms: _398  and  _399
REMARK  167  A    between atoms: _402  and  _404
REMARK  168  A    between atoms: _404  and  _405
REMARK  169  A    between atoms: _404  and  _407
REMARK  170  A    between atoms: _410  and  _412
REMARK  171  A    between atoms: _412  and  _413
REMARK  172  A    between atoms: _412  and  _415
REMARK  173  A    between atoms: _415  and  _416
REMARK  174  A    between atoms: _420  and  _421
REMARK  175  A    between atoms: _426  and  _428
REMARK  176  A    between atoms: _428  and  _429
REMARK  177  A    between atoms: _428  and  _431
REMARK  178  A    between atoms: _431  and  _432
REMARK  179  A    between atoms: _436  and  _437
REMARK  180  A    between atoms: _442  and  _444
REMARK  181  A    between atoms: _444  and  _445
REMARK  182  A    between atoms: _444  and  _447
REMARK  183  A    between atoms: _450  and  _452
REMARK  184  A    between atoms: _452  and  _453
REMARK  185  A    between atoms: _452  and  _455
REMARK  186  A    between atoms: _455  and  _456
REMARK  187  A    between atoms: _461  and  _463
REMARK  188  A    between atoms: _463  and  _464
REMARK  189  A    between atoms: _463  and  _466
REMARK  190  A    between atoms: _466  and  _467
REMARK  191  A    between atoms: _470  and  _472
REMARK  192  A    between atoms: _472  and  _473
REMARK  193  A    between atoms: _472  and  _475
REMARK  194  A    between atoms: _475  and  _476
REMARK  195  A    between atoms: _479  and  _481
REMARK  196  A    between atoms: _481  and  _482
REMARK  197  A    between atoms: _484  and  _486
REMARK  198  A    between atoms: _486  and  _487
REMARK  199  A    between atoms: _486  and  _489
REMARK  200  A    between atoms: _489  and  _490
REMARK  201  A    between atoms: _490  and  _491
REMARK  202  A    between atoms: _491  and  _492
REMARK  203  A    between atoms: _501  and  _503
REMARK  204  A    between atoms: _503  and  _504
REMARK  205  A    between atoms: _503  and  _506
REMARK  206  A    between atoms: _506  and  _507
REMARK                            x       y       z     vdW  Elec       q    Type
REMARK                         _______ _______ _______ _____ _____    ______ ____
ROOT
ATOM      1  CA  ILE A   5      -5.701  22.447  32.644  0.00  0.00    +0.149 C 
ENDROOT
BRANCH   1   2
ATOM      2  C   ILE A   5      -6.457  23.127  33.777  0.00  0.00    +0.241 C 
ATOM      3  O   ILE A   5      -6.198  22.718  34.917  0.00  0.00    -0.273 OA
ATOM      4  N   ILE A   6      -7.318  24.129  33.642  0.00  0.00    -0.297 N 
ATOM      5  H   ILE A   6      -7.463  24.519  32.689  0.00  0.00    +0.150 HD
BRANCH   4   6
ATOM      6  CA  ILE A   6      -8.066  24.713  34.728  0.00  0.00    +0.149 C 
BRANCH   6   7
ATOM      7  C   ILE A   6      -9.464  24.142  34.563  0.00  0.00    +0.241 C 
ATOM      8  N   GLY A   7     -10.034  23.267  35.374  0.00  0.00    -0.295 N 
ATOM      9  H   GLY A   7      -9.532  22.976  36.237  0.00  0.00    +0.150 HD
ATOM     10  O   ILE A   6     -10.006  24.523  33.553  0.00  0.00    -0.273 OA
BRANCH   8  11
ATOM     11  CA  GLY A   7     -11.304  22.717  35.102  0.00  0.00    +0.176 C 
BRANCH  11  12
ATOM     12  C   GLY A   7     -12.370  23.515  35.798  0.00  0.00    +0.243 C 
ATOM     13  O   GLY A   7     -12.113  24.579  36.307  0.00  0.00    -0.273 OA
ATOM     14  N   ARG A   8     -13.546  22.859  35.771  0.00  0.00    -0.302 N 
ATOM     15  H   ARG A   8     -13.592  21.898  35.375  0.00  0.00    +0.150 HD
BRANCH  14  16
ATOM     16  CA  ARG A   8     -14.758  23.487  36.294  0.00  0.00    +0.105 C 
BRANCH  16  17
ATOM     17  C   ARG A   8     -14.689  23.605  37.807  0.00  0.00    +0.201 C 
ATOM     18  O   ARG A   8     -15.506  24.414  38.260  0.00  0.00    -0.219 OA
ENDBRANCH  16  17
BRANCH  16  19
ATOM     19  CB  ARG A   8     -16.073  22.856  35.846  0.00  0.00    +0.026 C 
BRANCH  19  20
ATOM     20  CG  ARG A   8     -16.115  22.626  34.345  0.00  0.00    +0.045 C 
BRANCH  20  21
ATOM     21  CD  ARG A   8     -17.329  21.776  33.930  0.00  0.00    +0.174 C 
BRANCH  21  22
ATOM     22  NE  ARG A   8     -17.538  20.536  34.625  0.00  0.00    -0.265 N 
ATOM     23  CZ  ARG A   8     -18.312  20.298  35.645  0.00  0.00    +0.342 C 
ATOM     24  NH2 ARG A   8     -18.887  21.181  36.421  0.00  0.00    -0.292 N 
ATOM     25 HH21 ARG A   8     -19.487  20.867  37.210  0.00  0.00    +0.255 HD
ATOM     26 HH22 ARG A   8     -18.744  22.197  36.249  0.00  0.00    +0.255 HD
ATOM     27  NH1 ARG A   8     -18.561  19.021  35.880  0.00  0.00    -0.292 N 
ATOM     28 HH11 ARG A   8     -19.171  18.748  36.677  0.00  0.00    +0.255 HD
ATOM     29 HH12 ARG A   8     -18.147  18.289  35.268  0.00  0.00    +0.255 HD
ATOM     30  HE  ARG A   8     -17.000  19.721  34.266  0.00  0.00    +0.259 HD
ENDBRANCH  21  22
ENDBRANCH  20  21
ENDBRANCH  19  20
ENDBRANCH  16  19
ENDBRANCH  14  16
ENDBRANCH  11  12
ENDBRANCH   8  11
ENDBRANCH   6   7
BRANCH   6  31
ATOM     31  CB  ILE A   6      -8.206  26.247  34.702  0.00  0.00    +0.027 C 
ATOM     32  CG2 ILE A   6      -8.865  26.724  36.003  0.00  0.00    +0.002 C 
BRANCH  31  33
ATOM     33  CG1 ILE A   6      -6.866  26.931  34.596  0.00  0.00    +0.002 C 
ATOM     34  CD1 ILE A   6      -5.788  26.613  35.625  0.00  0.00    +0.000 C 
ENDBRANCH  31  33
ENDBRANCH   6  31
ENDBRANCH   4   6
ENDBRANCH   1   2
BRANCH   1  36
ATOM     35  C   ASN A   4      -3.301  22.910  32.185  0.00  0.00    +0.241 C 
ATOM     36  N   ILE A   5      -4.259  22.365  32.914  0.00  0.00    -0.297 N 
ATOM     37  H   ILE A   5      -3.966  21.829  33.756  0.00  0.00    +0.150 HD
ATOM     38  O   ASN A   4      -3.587  23.662  31.227  0.00  0.00    -0.273 OA
BRANCH  35  39
ATOM     39  CA  ASN A   4      -1.839  22.628  32.572  0.00  0.00    +0.158 C 
BRANCH  39  41
ATOM     40  C   VAL A   3      -1.362  21.051  30.765  0.00  0.00    +0.241 C 
ATOM     41  N   ASN A   4      -1.123  22.170  31.393  0.00  0.00    -0.297 N 
ATOM     42  H   ASN A   4      -0.365  22.778  31.023  0.00  0.00    +0.150 HD
ATOM     43  O   VAL A   3      -2.081  20.164  31.201  0.00  0.00    -0.273 OA
BRANCH  40  44
ATOM     44  CA  VAL A   3      -0.697  20.789  29.407  0.00  0.00    +0.149 C 
BRANCH  44  46
ATOM     45  C   PRO A   2       0.528  18.720  28.705  0.00  0.00    +0.241 C 
ATOM     46  N   VAL A   3      -0.436  19.381  29.349  0.00  0.00    -0.297 N 
ATOM     47  H   VAL A   3      -1.096  18.786  29.889  0.00  0.00    +0.150 HD
ATOM     48  O   PRO A   2       1.333  19.414  28.048  0.00  0.00    -0.273 OA
BRANCH  45  55
ATOM     49  C   THR A   1       0.032  16.705  31.072  0.00  0.00    +0.244 C 
ATOM     50  O   THR A   1       1.008  17.294  31.524  0.00  0.00    -0.273 OA
ATOM     51  N   PRO A   2      -0.250  16.577  29.771  0.00  0.00    -0.272 N 
ATOM     52  CD  PRO A   2      -1.163  15.551  29.203  0.00  0.00    +0.094 C 
ATOM     53  CG  PRO A   2      -1.279  15.980  27.774  0.00  0.00    +0.024 C 
ATOM     54  CB  PRO A   2       0.048  16.534  27.450  0.00  0.00    +0.031 C 
ATOM     55  CA  PRO A   2       0.577  17.197  28.742  0.00  0.00    +0.152 C 
BRANCH  49  56
ATOM     56  CA  THR A   1      -0.883  16.030  32.084  0.00  0.00    +0.172 C 
BRANCH  56  57
ATOM     57  N   THR A   1       0.023  15.498  33.086  0.00  0.00    -0.236 NA
ATOM     58  H   THR A   1       0.162  16.038  33.964  0.00  0.00    +0.142 HD
ENDBRANCH  56  57
BRANCH  56  59
ATOM     59  CB  THR A   1      -1.888  17.016  32.675  0.00  0.00    +0.135 C 
ATOM     60  CG2 THR A   1      -1.134  17.970  33.573  0.00  0.00    +0.034 C 
BRANCH  59  61
ATOM     61  OG1 THR A   1      -2.579  17.756  31.663  0.00  0.00    -0.383 OA
ATOM     62  HG1 THR A   1      -1.924  18.268  31.126  0.00  0.00    +0.210 HD
ENDBRANCH  59  61
ENDBRANCH  56  59
ENDBRANCH  49  56
ENDBRANCH  45  55
ENDBRANCH  44  46
BRANCH  44  63
ATOM     63  CB  VAL A   3      -1.791  21.270  28.411  0.00  0.00    +0.027 C 
ATOM     64  CG2 VAL A   3      -1.587  22.744  28.044  0.00  0.00    +0.002 C 
ATOM     65  CG1 VAL A   3      -1.894  20.550  27.084  0.00  0.00    +0.002 C 
ENDBRANCH  44  63
ENDBRANCH  40  44
ENDBRANCH  39  41
BRANCH  39  66
ATOM     66  CB  ASN A   4      -1.231  23.976  33.046  0.00  0.00    +0.114 C 
BRANCH  66  67
ATOM     67  CG  ASN A   4       0.212  23.869  33.461  0.00  0.00    +0.222 C 
ATOM     68  OD1 ASN A   4       0.518  22.866  34.117  0.00  0.00    -0.275 OA
ATOM     69  ND2 ASN A   4       1.138  24.770  33.195  0.00  0.00    -0.329 N 
ATOM     70 HD21 ASN A   4       2.111  24.632  33.536  0.00  0.00    +0.145 HD
ATOM     71 HD22 ASN A   4       0.895  25.618  32.644  0.00  0.00    +0.145 HD
ENDBRANCH  66  67
ENDBRANCH  39  66
ENDBRANCH  35  39
ENDBRANCH   1  36
BRANCH   1  72
ATOM     72  CB  ILE A   5      -6.148  20.968  32.594  0.00  0.00    +0.027 C 
ATOM     73  CG2 ILE A   5      -7.583  20.659  32.895  0.00  0.00    +0.002 C 
BRANCH  72  74
ATOM     74  CG1 ILE A   5      -5.825  20.440  31.195  0.00  0.00    +0.002 C 
ATOM     75  CD1 ILE A   5      -5.632  18.919  31.321  0.00  0.00    +0.000 C 
ENDBRANCH  72  74
ENDBRANCH   1  72
TORSDOF 28
REMARK  Name = ../refined-set-2016/1gno/1gno_pocket.pdb
REMARK  206 active torsions:
REMARK  status: ('A' for Active; 'I' for Inactive)
REMARK    1  A    between atoms: _1  and  _3
REMARK    2  A    between atoms: _3  and  _4
REMARK    3  A    between atoms: _3  and  _6
REMARK    4  A    between atoms: _6  and  _7
REMARK    5  A    between atoms: _7  and  _8
REMARK    6  A    between atoms: _8  and  _9
REMARK    7  A    between atoms: _18  and  _20
REMARK    8  A    between atoms: _20  and  _21
REMARK    9  A    between atoms: _20  and  _23
REMARK   10  A    between atoms: _23  and  _24
REMARK   11  A    between atoms: _27  and  _29
REMARK   12  A    between atoms: _29  and  _30
REMARK   13  A    between atoms: _29  and  _32
REMARK   14  A    between atoms: _32  and  _33
REMARK   15  A    between atoms: _36  and  _38
REMARK   16  A    between atoms: _38  and  _39
REMARK   17  A    between atoms: _38  and  _41
REMARK   18  A    between atoms: _41  and  _42
REMARK   19  A    between atoms: _45  and  _47
REMARK   20  A    between atoms: _47  and  _48
REMARK   21  A    between atoms: _47  and  _50
REMARK   22  A    between atoms: _50  and  _51
REMARK   23  A    between atoms: _54  and  _56
REMARK   24  A    between atoms: _56  and  _57
REMARK   25  A    between atoms: _59  and  _61
REMARK   26  A    between atoms: _61  and  _62
REMARK   27  A    between atoms: _65  and  _67
REMARK   28  A    between atoms: _67  and  _68
REMARK   29  A    between atoms: _67  and  _70
REMARK   30  A    between atoms: _70  and  _71
REMARK   31  A    between atoms: _74  and  _76
REMARK   32  A    between atoms: _76  and  _77
REMARK   33  A    between atoms: _76  and  _79
REMARK   34  A    between atoms: _79  and  _80
REMARK   35  A    between atoms: _83  and  _85
REMARK   36  A    between atoms: _85  and  _86
REMARK   37  A    between atoms: _85  and  _88
REMARK   38  A    between atoms: _88  and  _89
REMARK   39  A    between atoms: _92  and  _94
REMARK   40  A    between atoms: _94  and  _95
REMARK   41  A    between atoms: _94  and  _97
REMARK   42  A    between atoms: _100  and  _102
REMARK   43  A    between atoms: _102  and  _103
REMARK   44  A    between atoms: _102  and  _105
REMARK   45  A    between atoms: _105  and  _106
REMARK   46  A    between atoms: _109  and  _111
REMARK   47  A    between atoms: _111  and  _112
REMARK   48  A    between atoms: _114  and  _116
REMARK   49  A    between atoms: _116  and  _117
REMARK   50  A    between atoms: _119  and  _121
REMARK   51  A    between atoms: _121  and  _122
REMARK   52  A    between atoms: _121  and  _124
REMARK   53  A    between atoms: _124  and  _125
REMARK   54  A    between atoms: _128  and  _130
REMARK   55  A    between atoms: _130  and  _131
REMARK   56  A    between atoms: _133  and  _135
REMARK   57  A    between atoms: _135  and  _136
REMARK   58  A    between atoms: _138  and  _140
REMARK   59  A    between atoms: _140  and  _141
REMARK   60  A    between atoms: _140  and  _143
REMARK   61  A    between atoms: _143  and  _144
REMARK   62  A    between atoms: _147  and  _149
REMARK   63  A    between atoms: _149  and  _150
REMARK   64  A    between atoms: _149  and  _152
REMARK   65  A    between atoms: _152  and  _153
REMARK   66  A    between atoms: _157  and  _158
REMARK   67  A    between atoms: _163  and  _165
REMARK   68  A    between atoms: _165  and  _166
REMARK   69  A    between atoms: _165  and  _168
REMARK   70  A    between atoms: _171  and  _173
REMARK   71  A    between atoms: _173  and  _174
REMARK   72  A    between atoms: _173  and  _176
REMARK   73  A    between atoms: _176  and  _177
REMARK   74  A    between atoms: _182  and  _184
REMARK   75  A    between atoms: _184  and  _185
REMARK   76  A    between atoms: _184  and  _187
REMARK   77  A    between atoms: _187  and  _188
REMARK   78  A    between atoms: _191  and  _193
REMARK   79  A    between atoms: _193  and  _194
REMARK   80  A    between atoms: _193  and  _196
REMARK   81  A    between atoms: _196  and  _197
REMARK   82  A    between atoms: _200  and  _202
REMARK   83  A    between atoms: _202  and  _203
REMARK   84  A    between atoms: _205  and  _207
REMARK   85  A    between atoms: _207  and  _208
REMARK   86  A    between atoms: _207  and  _210
REMARK   87  A    between atoms: _210  and  _211
REMARK   88  A    between atoms: _211  and  _212
REMARK   89  A    between atoms: _212  and  _213
REMARK   90  A    between atoms: _222  and  _224
REMARK   91  A    between atoms: _224  and  _225
REMARK   92  A    between atoms: _224  and  _227
REMARK   93  A    between atoms: _227  and  _228
REMARK   94  A    between atoms: _228  and  _229
REMARK   95  A    between atoms: _229  and  _230
REMARK   96  A    between atoms: _239  and  _241
REMARK   97  A    between atoms: _241  and  _242
REMARK   98  A    between atoms: _241  and  _244
REMARK   99  A    between atoms: _244  and  _245
REMARK  100  A    between atoms: _248  and  _250
REMARK  101  A    between atoms: _250  and  _251
REMARK  102  A    between atoms: _250  and  _253
REMARK  103  A    between atoms: _253  and  _254
REMARK  104  A    between atoms: _257  and  _259
REMARK  105  A    between atoms: _259  and  _260
REMARK  106  A    between atoms: _259  and  _262
REMARK  107  A    between atoms: _262  and  _263
REMARK  108  A    between atoms: _266  and  _268
REMARK  109  A    between atoms: _268  and  _269
REMARK  110  A    between atoms: _268  and  _271
REMARK  111  A    between atoms: _271  and  _272
REMARK  112  A    between atoms: _275  and  _277
REMARK  113  A    between atoms: _277  and  _278
REMARK  114  A    between atoms: _280  and  _282
REMARK  115  A    between atoms: _282  and  _283
REMARK  116  A    between atoms: _286  and  _288
REMARK  117  A    between atoms: _288  and  _289
REMARK  118  A    between atoms: _288  and  _291
REMARK  119  A    between atoms: _291  and  _292
REMARK  120  A    between atoms: _295  and  _297
REMARK  121  A    between atoms: _297  and  _298
REMARK  122  A    between atoms: _297  and  _300
REMARK  123  A    between atoms: _300  and  _301
REMARK  124  A    between atoms: _304  and  _306
REMARK  125  A    between atoms: _306  and  _307
REMARK  126  A    between atoms: _306  and  _309
REMARK  127  A    between atoms: _309  and  _310
REMARK  128  A    between atoms: _313  and  _315
REMARK  129  A    between atoms: _315  and  _316
REMARK  130  A    between atoms: _315  and  _318
REMARK  131  A    between atoms: _321  and  _323
REMARK  132  A    between atoms: _323  and  _324
REMARK  133  A    between atoms: _323  and  _326
REMARK  134  A    between atoms: _326  and  _327
REMARK  135  A    between atoms: _327  and  _328
REMARK  136  A    between atoms: _328  and  _329
REMARK  137  A    between atoms: _329  and  _330
REMARK  138  A    between atoms: _334  and  _336
REMARK  139  A    between atoms: _336  and  _337
REMARK  140  A    between atoms: _336  and  _339
REMARK  141  A    between atoms: _339  and  _340
REMARK  142  A    between atoms: _340  and  _341
REMARK  143  A    between atoms: _343  and  _345
REMARK  144  A    between atoms: _345  and  _346
REMARK  145  A    between atoms: _345  and  _348
REMARK  146  A    between atoms: _348  and  _349
REMARK  147  A    between atoms: _352  and  _354
REMARK  148  A    between atoms: _354  and  _355
REMARK  149  A    between atoms: _357  and  _359
REMARK  150  A    between atoms: _359  and  _360
REMARK  151  A    between atoms: _362  and  _364
REMARK  152  A    between atoms: _364  and  _365
REMARK  153  A    between atoms: _364  and  _367
REMARK  154  A    between atoms: _367  and  _368
REMARK  155  A    between atoms: _371  and  _373
REMARK  156  A    between atoms: _373  and  _374
REMARK  157  A    between atoms: _376  and  _378
REMARK  158  A    between atoms: _378  and  _379
REMARK  159  A    between atoms: _381  and  _383
REMARK  160  A    between atoms: _383  and  _384
REMARK  161  A    between atoms: _383  and  _386
REMARK  162  A    between atoms: _386  and  _387
REMARK  163  A    between atoms: _393  and  _395
REMARK  164  A    between atoms: _395  and  _396
REMARK  165  A    between atoms: _395  and  _398
REMARK  166  A    between atoms: _398  and  _399
REMARK  167  A    between atoms: _402  and  _404
REMARK  168  A    between atoms: _404  and  _405
REMARK  169  A    between atoms: _404  and  _407
REMARK  170  A    between atoms: _410  and  _412
REMARK  171  A    between atoms: _412  and  _413
REMARK  172  A    between atoms: _412  and  _415
REMARK  173  A    between atoms: _415  and  _416
REMARK  174  A    between atoms: _420  and  _421
REMARK  175  A    between atoms: _426  and  _428
REMARK  176  A    between atoms: _428  and  _429
REMARK  177  A    between atoms: _428  and  _431
REMARK  178  A    between atoms: _431  and  _432
REMARK  179  A    between atoms: _436  and  _437
REMARK  180  A    between atoms: _442  and  _444
REMARK  181  A    between atoms: _444  and  _445
REMARK  182  A    between atoms: _444  and  _447
REMARK  183  A    between atoms: _450  and  _452
REMARK  184  A    between atoms: _452  and  _453
REMARK  185  A    between atoms: _452  and  _455
REMARK  186  A    between atoms: _455  and  _456
REMARK  187  A    between atoms: _461  and  _463
REMARK  188  A    between atoms: _463  and  _464
REMARK  189  A    between atoms: _463  and  _466
REMARK  190  A    between atoms: _466  and  _467
REMARK  191  A    between atoms: _470  and  _472
REMARK  192  A    between atoms: _472  and  _473
REMARK  193  A    between atoms: _472  and  _475
REMARK  194  A    between atoms: _475  and  _476
REMARK  195  A    between atoms: _479  and  _481
REMARK  196  A    between atoms: _481  and  _482
REMARK  197  A    between atoms: _484  and  _486
REMARK  198  A    between atoms: _486  and  _487
REMARK  199  A    between atoms: _486  and  _489
REMARK  200  A    between atoms: _489  and  _490
REMARK  201  A    between atoms: _490  and  _491
REMARK  202  A    between atoms: _491  and  _492
REMARK  203  A    between atoms: _501  and  _503
REMARK  204  A    between atoms: _503  and  _504
REMARK  205  A    between atoms: _503  and  _506
REMARK  206  A    between atoms: _506  and  _507
REMARK                            x       y       z     vdW  Elec       q    Type
REMARK                         _______ _______ _______ _____ _____    ______ ____
ROOT
ATOM      1  NE  ARG A   1     -18.458  15.433  34.389  0.00  0.00    -0.265 N 
ATOM      2  CZ  ARG A   1     -18.483  14.595  35.326  0.00  0.00    +0.342 C 
ATOM      3  NH2 ARG A   1     -19.372  14.468  36.345  0.00  0.00    -0.292 N 
ATOM      4 HH21 ARG A   1     -19.252  13.712  37.049  0.00  0.00    +0.255 HD
ATOM      5 HH22 ARG A   1     -20.173  15.127  36.421  0.00  0.00    +0.255 HD
ATOM      6  NH1 ARG A   1     -17.489  13.736  35.627  0.00  0.00    -0.292 N 
ATOM      7 HH11 ARG A   1     -17.596  13.075  36.423  0.00  0.00    +0.255 HD
ATOM      8 HH12 ARG A   1     -16.615  13.734  35.064  0.00  0.00    +0.255 HD
ATOM      9  HE  ARG A   1     -17.521  15.570  33.958  0.00  0.00    +0.259 HD
ENDROOT
BRANCH   1  10
ATOM     10  CD  ARG A   1     -19.514  16.244  33.804  0.00  0.00    +0.174 C 
BRANCH  10  11
ATOM     11  CG  ARG A   1     -19.398  17.578  33.147  0.00  0.00    +0.045 C 
BRANCH  11  12
ATOM     12  CB  ARG A   1     -20.688  18.080  32.462  0.00  0.00    +0.029 C 
BRANCH  12  13
ATOM     13  CA  ARG A   1     -20.845  19.585  32.709  0.00  0.00    +0.133 C 
BRANCH  13  14
ATOM     14  N   ARG A   1     -21.473  19.744  34.055  0.00  0.00    -0.239 NA
ATOM     15  H   ARG A   1     -21.568  18.924  34.688  0.00  0.00    +0.142 HD
ENDBRANCH  13  14
BRANCH  13  16
ATOM     16  C   ARG A   1     -21.704  20.267  31.638  0.00  0.00    +0.224 C 
ATOM     17  O   ARG A   1     -22.937  20.105  31.644  0.00  0.00    -0.287 OA
ENDBRANCH  13  16
ENDBRANCH  12  13
ENDBRANCH  11  12
ENDBRANCH  10  11
ENDBRANCH   1  10
TORSDOF 6
REMARK  Name = ../refined-set-2016/1gno/1gno_pocket.pdb
REMARK  206 active torsions:
REMARK  status: ('A' for Active; 'I' for Inactive)
REMARK    1  A    between atoms: _1  and  _3
REMARK    2  A    between atoms: _3  and  _4
REMARK    3  A    between atoms: _3  and  _6
REMARK    4  A    between atoms: _6  and  _7
REMARK    5  A    between atoms: _7  and  _8
REMARK    6  A    between atoms: _8  and  _9
REMARK    7  A    between atoms: _18  and  _20
REMARK    8  A    between atoms: _20  and  _21
REMARK    9  A    between atoms: _20  and  _23
REMARK   10  A    between atoms: _23  and  _24
REMARK   11  A    between atoms: _27  and  _29
REMARK   12  A    between atoms: _29  and  _30
REMARK   13  A    between atoms: _29  and  _32
REMARK   14  A    between atoms: _32  and  _33
REMARK   15  A    between atoms: _36  and  _38
REMARK   16  A    between atoms: _38  and  _39
REMARK   17  A    between atoms: _38  and  _41
REMARK   18  A    between atoms: _41  and  _42
REMARK   19  A    between atoms: _45  and  _47
REMARK   20  A    between atoms: _47  and  _48
REMARK   21  A    between atoms: _47  and  _50
REMARK   22  A    between atoms: _50  and  _51
REMARK   23  A    between atoms: _54  and  _56
REMARK   24  A    between atoms: _56  and  _57
REMARK   25  A    between atoms: _59  and  _61
REMARK   26  A    between atoms: _61  and  _62
REMARK   27  A    between atoms: _65  and  _67
REMARK   28  A    between atoms: _67  and  _68
REMARK   29  A    between atoms: _67  and  _70
REMARK   30  A    between atoms: _70  and  _71
REMARK   31  A    between atoms: _74  and  _76
REMARK   32  A    between atoms: _76  and  _77
REMARK   33  A    between atoms: _76  and  _79
REMARK   34  A    between atoms: _79  and  _80
REMARK   35  A    between atoms: _83  and  _85
REMARK   36  A    between atoms: _85  and  _86
REMARK   37  A    between atoms: _85  and  _88
REMARK   38  A    between atoms: _88  and  _89
REMARK   39  A    between atoms: _92  and  _94
REMARK   40  A    between atoms: _94  and  _95
REMARK   41  A    between atoms: _94  and  _97
REMARK   42  A    between atoms: _100  and  _102
REMARK   43  A    between atoms: _102  and  _103
REMARK   44  A    between atoms: _102  and  _105
REMARK   45  A    between atoms: _105  and  _106
REMARK   46  A    between atoms: _109  and  _111
REMARK   47  A    between atoms: _111  and  _112
REMARK   48  A    between atoms: _114  and  _116
REMARK   49  A    between atoms: _116  and  _117
REMARK   50  A    between atoms: _119  and  _121
REMARK   51  A    between atoms: _121  and  _122
REMARK   52  A    between atoms: _121  and  _124
REMARK   53  A    between atoms: _124  and  _125
REMARK   54  A    between atoms: _128  and  _130
REMARK   55  A    between atoms: _130  and  _131
REMARK   56  A    between atoms: _133  and  _135
REMARK   57  A    between atoms: _135  and  _136
REMARK   58  A    between atoms: _138  and  _140
REMARK   59  A    between atoms: _140  and  _141
REMARK   60  A    between atoms: _140  and  _143
REMARK   61  A    between atoms: _143  and  _144
REMARK   62  A    between atoms: _147  and  _149
REMARK   63  A    between atoms: _149  and  _150
REMARK   64  A    between atoms: _149  and  _152
REMARK   65  A    between atoms: _152  and  _153
REMARK   66  A    between atoms: _157  and  _158
REMARK   67  A    between atoms: _163  and  _165
REMARK   68  A    between atoms: _165  and  _166
REMARK   69  A    between atoms: _165  and  _168
REMARK   70  A    between atoms: _171  and  _173
REMARK   71  A    between atoms: _173  and  _174
REMARK   72  A    between atoms: _173  and  _176
REMARK   73  A    between atoms: _176  and  _177
REMARK   74  A    between atoms: _182  and  _184
REMARK   75  A    between atoms: _184  and  _185
REMARK   76  A    between atoms: _184  and  _187
REMARK   77  A    between atoms: _187  and  _188
REMARK   78  A    between atoms: _191  and  _193
REMARK   79  A    between atoms: _193  and  _194
REMARK   80  A    between atoms: _193  and  _196
REMARK   81  A    between atoms: _196  and  _197
REMARK   82  A    between atoms: _200  and  _202
REMARK   83  A    between atoms: _202  and  _203
REMARK   84  A    between atoms: _205  and  _207
REMARK   85  A    between atoms: _207  and  _208
REMARK   86  A    between atoms: _207  and  _210
REMARK   87  A    between atoms: _210  and  _211
REMARK   88  A    between atoms: _211  and  _212
REMARK   89  A    between atoms: _212  and  _213
REMARK   90  A    between atoms: _222  and  _224
REMARK   91  A    between atoms: _224  and  _225
REMARK   92  A    between atoms: _224  and  _227
REMARK   93  A    between atoms: _227  and  _228
REMARK   94  A    between atoms: _228  and  _229
REMARK   95  A    between atoms: _229  and  _230
REMARK   96  A    between atoms: _239  and  _241
REMARK   97  A    between atoms: _241  and  _242
REMARK   98  A    between atoms: _241  and  _244
REMARK   99  A    between atoms: _244  and  _245
REMARK  100  A    between atoms: _248  and  _250
REMARK  101  A    between atoms: _250  and  _251
REMARK  102  A    between atoms: _250  and  _253
REMARK  103  A    between atoms: _253  and  _254
REMARK  104  A    between atoms: _257  and  _259
REMARK  105  A    between atoms: _259  and  _260
REMARK  106  A    between atoms: _259  and  _262
REMARK  107  A    between atoms: _262  and  _263
REMARK  108  A    between atoms: _266  and  _268
REMARK  109  A    between atoms: _268  and  _269
REMARK  110  A    between atoms: _268  and  _271
REMARK  111  A    between atoms: _271  and  _272
REMARK  112  A    between atoms: _275  and  _277
REMARK  113  A    between atoms: _277  and  _278
REMARK  114  A    between atoms: _280  and  _282
REMARK  115  A    between atoms: _282  and  _283
REMARK  116  A    between atoms: _286  and  _288
REMARK  117  A    between atoms: _288  and  _289
REMARK  118  A    between atoms: _288  and  _291
REMARK  119  A    between atoms: _291  and  _292
REMARK  120  A    between atoms: _295  and  _297
REMARK  121  A    between atoms: _297  and  _298
REMARK  122  A    between atoms: _297  and  _300
REMARK  123  A    between atoms: _300  and  _301
REMARK  124  A    between atoms: _304  and  _306
REMARK  125  A    between atoms: _306  and  _307
REMARK  126  A    between atoms: _306  and  _309
REMARK  127  A    between atoms: _309  and  _310
REMARK  128  A    between atoms: _313  and  _315
REMARK  129  A    between atoms: _315  and  _316
REMARK  130  A    between atoms: _315  and  _318
REMARK  131  A    between atoms: _321  and  _323
REMARK  132  A    between atoms: _323  and  _324
REMARK  133  A    between atoms: _323  and  _326
REMARK  134  A    between atoms: _326  and  _327
REMARK  135  A    between atoms: _327  and  _328
REMARK  136  A    between atoms: _328  and  _329
REMARK  137  A    between atoms: _329  and  _330
REMARK  138  A    between atoms: _334  and  _336
REMARK  139  A    between atoms: _336  and  _337
REMARK  140  A    between atoms: _336  and  _339
REMARK  141  A    between atoms: _339  and  _340
REMARK  142  A    between atoms: _340  and  _341
REMARK  143  A    between atoms: _343  and  _345
REMARK  144  A    between atoms: _345  and  _346
REMARK  145  A    between atoms: _345  and  _348
REMARK  146  A    between atoms: _348  and  _349
REMARK  147  A    between atoms: _352  and  _354
REMARK  148  A    between atoms: _354  and  _355
REMARK  149  A    between atoms: _357  and  _359
REMARK  150  A    between atoms: _359  and  _360
REMARK  151  A    between atoms: _362  and  _364
REMARK  152  A    between atoms: _364  and  _365
REMARK  153  A    between atoms: _364  and  _367
REMARK  154  A    between atoms: _367  and  _368
REMARK  155  A    between atoms: _371  and  _373
REMARK  156  A    between atoms: _373  and  _374
REMARK  157  A    between atoms: _376  and  _378
REMARK  158  A    between atoms: _378  and  _379
REMARK  159  A    between atoms: _381  and  _383
REMARK  160  A    between atoms: _383  and  _384
REMARK  161  A    between atoms: _383  and  _386
REMARK  162  A    between atoms: _386  and  _387
REMARK  163  A    between atoms: _393  and  _395
REMARK  164  A    between atoms: _395  and  _396
REMARK  165  A    between atoms: _395  and  _398
REMARK  166  A    between atoms: _398  and  _399
REMARK  167  A    between atoms: _402  and  _404
REMARK  168  A    between atoms: _404  and  _405
REMARK  169  A    between atoms: _404  and  _407
REMARK  170  A    between atoms: _410  and  _412
REMARK  171  A    between atoms: _412  and  _413
REMARK  172  A    between atoms: _412  and  _415
REMARK  173  A    between atoms: _415  and  _416
REMARK  174  A    between atoms: _420  and  _421
REMARK  175  A    between atoms: _426  and  _428
REMARK  176  A    between atoms: _428  and  _429
REMARK  177  A    between atoms: _428  and  _431
REMARK  178  A    between atoms: _431  and  _432
REMARK  179  A    between atoms: _436  and  _437
REMARK  180  A    between atoms: _442  and  _444
REMARK  181  A    between atoms: _444  and  _445
REMARK  182  A    between atoms: _444  and  _447
REMARK  183  A    between atoms: _450  and  _452
REMARK  184  A    between atoms: _452  and  _453
REMARK  185  A    between atoms: _452  and  _455
REMARK  186  A    between atoms: _455  and  _456
REMARK  187  A    between atoms: _461  and  _463
REMARK  188  A    between atoms: _463  and  _464
REMARK  189  A    between atoms: _463  and  _466
REMARK  190  A    between atoms: _466  and  _467
REMARK  191  A    between atoms: _470  and  _472
REMARK  192  A    between atoms: _472  and  _473
REMARK  193  A    between atoms: _472  and  _475
REMARK  194  A    between atoms: _475  and  _476
REMARK  195  A    between atoms: _479  and  _481
REMARK  196  A    between atoms: _481  and  _482
REMARK  197  A    between atoms: _484  and  _486
REMARK  198  A    between atoms: _486  and  _487
REMARK  199  A    between atoms: _486  and  _489
REMARK  200  A    between atoms: _489  and  _490
REMARK  201  A    between atoms: _490  and  _491
REMARK  202  A    between atoms: _491  and  _492
REMARK  203  A    between atoms: _501  and  _503
REMARK  204  A    between atoms: _503  and  _504
REMARK  205  A    between atoms: _503  and  _506
REMARK  206  A    between atoms: _506  and  _507
REMARK                            x       y       z     vdW  Elec       q    Type
REMARK                         _______ _______ _______ _____ _____    ______ ____
ROOT
ATOM      1  C   GLY A   5      -9.579  21.337  24.817  0.00  0.00    +0.243 C 
ATOM      2  O   GLY A   5      -8.632  20.557  24.816  0.00  0.00    -0.273 OA
ATOM      3  N   ALA A   6     -10.503  21.183  23.875  0.00  0.00    -0.297 N 
ATOM      4  H   ALA A   6     -11.334  21.808  23.880  0.00  0.00    +0.150 HD
ENDROOT
BRANCH   3   5
ATOM      5  CA  ALA A   6     -10.391  20.160  22.827  0.00  0.00    +0.149 C 
ATOM      6  CB  ALA A   6     -11.575  19.198  22.835  0.00  0.00    +0.031 C 
BRANCH   5   7
ATOM      7  C   ALA A   6     -10.324  20.979  21.539  0.00  0.00    +0.241 C 
ATOM      8  O   ALA A   6     -11.227  21.763  21.250  0.00  0.00    -0.273 OA
ATOM      9  N   ASP A   7      -9.249  20.883  20.790  0.00  0.00    -0.297 N 
ATOM     10  H   ASP A   7      -8.463  20.302  21.145  0.00  0.00    +0.150 HD
BRANCH   9  11
ATOM     11  CA  ASP A   7      -9.082  21.528  19.509  0.00  0.00    +0.160 C 
BRANCH  11  12
ATOM     12  C   ASP A   7     -10.035  20.982  18.471  0.00  0.00    +0.241 C 
ATOM     13  N   ASP A   8     -10.329  19.711  18.554  0.00  0.00    -0.297 N 
ATOM     14  H   ASP A   8      -9.942  19.170  19.354  0.00  0.00    +0.150 HD
ATOM     15  O   ASP A   7     -10.378  21.758  17.614  0.00  0.00    -0.273 OA
BRANCH  13  16
ATOM     16  CA  ASP A   8     -11.160  19.015  17.599  0.00  0.00    +0.160 C 
BRANCH  16  17
ATOM     17  C   ASP A   8     -12.439  18.434  18.206  0.00  0.00    +0.241 C 
ATOM     18  O   ASP A   8     -12.627  18.496  19.411  0.00  0.00    -0.273 OA
ATOM     19  N   THR A   9     -13.245  17.855  17.319  0.00  0.00    -0.295 N 
ATOM     20  H   THR A   9     -12.970  17.823  16.317  0.00  0.00    +0.150 HD
BRANCH  19  21
ATOM     21  CA  THR A   9     -14.495  17.273  17.736  0.00  0.00    +0.176 C 
BRANCH  21  22
ATOM     22  C   THR A   9     -14.343  15.769  17.620  0.00  0.00    +0.243 C 
ATOM     23  N   VAL A  10     -14.528  15.035  18.721  0.00  0.00    -0.298 N 
ATOM     24  H   VAL A  10     -14.797  15.497  19.613  0.00  0.00    +0.150 HD
ATOM     25  O   THR A   9     -14.022  15.294  16.536  0.00  0.00    -0.273 OA
BRANCH  23  26
ATOM     26  CA  VAL A  10     -14.354  13.588  18.676  0.00  0.00    +0.137 C 
BRANCH  26  27
ATOM     27  CB  VAL A  10     -13.036  13.200  19.342  0.00  0.00    +0.026 C 
ATOM     28  CG2 VAL A  10     -12.952  13.883  20.683  0.00  0.00    +0.002 C 
ATOM     29  CG1 VAL A  10     -12.810  11.706  19.423  0.00  0.00    +0.002 C 
ENDBRANCH  26  27
BRANCH  26  30
ATOM     30  C   VAL A  10     -15.603  12.932  19.228  0.00  0.00    +0.227 C 
ATOM     31  O   VAL A  10     -15.985  13.224  20.357  0.00  0.00    -0.286 OA
ENDBRANCH  26  30
ENDBRANCH  23  26
ENDBRANCH  21  22
BRANCH  21  32
ATOM     32  CB  THR A   9     -15.656  17.804  16.891  0.00  0.00    +0.137 C 
ATOM     33  CG2 THR A   9     -16.970  17.138  17.107  0.00  0.00    +0.034 C 
BRANCH  32  34
ATOM     34  OG1 THR A   9     -15.792  19.199  17.284  0.00  0.00    -0.382 OA
ATOM     35  HG1 THR A   9     -14.948  19.679  17.092  0.00  0.00    +0.210 HD
ENDBRANCH  32  34
ENDBRANCH  21  32
ENDBRANCH  19  21
ENDBRANCH  16  17
BRANCH  16  36
ATOM     36  CB  ASP A   8     -10.468  17.717  17.172  0.00  0.00    +0.143 C 
BRANCH  36  37
ATOM     37  CG  ASP A   8      -9.162  18.033  16.503  0.00  0.00    +0.367 C 
ATOM     38  OD2 ASP A   8      -8.119  17.400  16.721  0.00  0.00    -0.246 OA
ATOM     39  OD1 ASP A   8      -9.180  18.982  15.704  0.00  0.00    -0.246 OA
ENDBRANCH  36  37
ENDBRANCH  16  36
ENDBRANCH  13  16
ENDBRANCH  11  12
BRANCH  11  40
ATOM     40  CB  ASP A   7      -7.756  21.102  18.869  0.00  0.00    +0.143 C 
BRANCH  40  41
ATOM     41  CG  ASP A   7      -6.617  21.554  19.764  0.00  0.00    +0.367 C 
ATOM     42  OD2 ASP A   7      -6.889  22.526  20.511  0.00  0.00    -0.246 OA
ATOM     43  OD1 ASP A   7      -5.541  20.921  19.694  0.00  0.00    -0.246 OA
ENDBRANCH  40  41
ENDBRANCH  11  40
ENDBRANCH   9  11
ENDBRANCH   5   7
ENDBRANCH   3   5
BRANCH   1  44
ATOM     44  CA  GLY A   5      -9.788  22.384  25.890  0.00  0.00    +0.176 C 
BRANCH  44  46
ATOM     45  C   THR A   4     -11.498  23.959  25.095  0.00  0.00    +0.243 C 
ATOM     46  N   GLY A   5     -11.143  22.923  25.842  0.00  0.00    -0.295 N 
ATOM     47  H   GLY A   5     -11.872  22.468  26.428  0.00  0.00    +0.150 HD
ATOM     48  O   THR A   4     -10.589  24.534  24.465  0.00  0.00    -0.273 OA
BRANCH  45  49
ATOM     49  CA  THR A   4     -12.922  24.440  25.069  0.00  0.00    +0.176 C 
BRANCH  49  51
ATOM     50  C   ASP A   3     -14.055  22.337  24.984  0.00  0.00    +0.241 C 
ATOM     51  N   THR A   4     -13.865  23.487  25.629  0.00  0.00    -0.295 N 
ATOM     52  H   THR A   4     -14.378  23.697  26.509  0.00  0.00    +0.150 HD
ATOM     53  O   ASP A   3     -13.459  22.082  23.944  0.00  0.00    -0.273 OA
BRANCH  50  54
ATOM     54  CA  ASP A   3     -14.980  21.294  25.540  0.00  0.00    +0.160 C 
BRANCH  54  57
ATOM     55  C   LEU A   2     -17.393  21.422  25.675  0.00  0.00    +0.241 C 
ATOM     56  O   LEU A   2     -17.313  21.815  26.831  0.00  0.00    -0.273 OA
ATOM     57  N   ASP A   3     -16.303  21.328  24.949  0.00  0.00    -0.297 N 
ATOM     58  H   ASP A   3     -16.392  21.276  23.914  0.00  0.00    +0.150 HD
BRANCH  55  59
ATOM     59  CA  LEU A   2     -18.787  21.238  25.073  0.00  0.00    +0.149 C 
BRANCH  59  61
ATOM     60  C   LEU A   1     -19.247  18.912  25.377  0.00  0.00    +0.238 C 
ATOM     61  N   LEU A   2     -19.497  20.166  25.761  0.00  0.00    -0.297 N 
ATOM     62  H   LEU A   2     -20.174  20.371  26.524  0.00  0.00    +0.150 HD
ATOM     63  O   LEU A   1     -18.495  18.795  24.364  0.00  0.00    -0.274 OA
BRANCH  60  64
ATOM     64  CA  LEU A   1     -19.811  17.727  26.115  0.00  0.00    +0.145 C 
BRANCH  64  65
ATOM     65  N   LEU A   1     -20.413  16.806  25.174  0.00  0.00    -0.238 NA
ATOM     66  H   LEU A   1     -19.902  15.932  24.935  0.00  0.00    +0.142 HD
ENDBRANCH  64  65
BRANCH  64  67
ATOM     67  CB  LEU A   1     -18.604  16.974  26.668  0.00  0.00    +0.026 C 
BRANCH  67  68
ATOM     68  CG  LEU A   1     -18.126  17.092  28.113  0.00  0.00    +0.002 C 
ATOM     69  CD2 LEU A   1     -18.900  18.119  28.915  0.00  0.00    +0.000 C 
ATOM     70  CD1 LEU A   1     -16.625  17.410  28.151  0.00  0.00    +0.000 C 
ENDBRANCH  67  68
ENDBRANCH  64  67
ENDBRANCH  60  64
ENDBRANCH  59  61
BRANCH  59  71
ATOM     71  CB  LEU A   2     -19.476  22.565  25.259  0.00  0.00    +0.029 C 
BRANCH  71  72
ATOM     72  CG  LEU A   2     -20.422  23.187  24.290  0.00  0.00    +0.002 C 
ATOM     73  CD2 LEU A   2     -21.555  23.823  25.076  0.00  0.00    +0.000 C 
ATOM     74  CD1 LEU A   2     -21.034  22.178  23.326  0.00  0.00    +0.000 C 
ENDBRANCH  71  72
ENDBRANCH  59  71
ENDBRANCH  55  59
ENDBRANCH  54  57
BRANCH  54  75
ATOM     75  CB  ASP A   3     -14.395  19.913  25.224  0.00  0.00    +0.143 C 
BRANCH  75  76
ATOM     76  CG  ASP A   3     -13.219  19.468  26.033  0.00  0.00    +0.367 C 
ATOM     77  OD2 ASP A   3     -12.678  20.215  26.875  0.00  0.00    -0.246 OA
ATOM     78  OD1 ASP A   3     -12.752  18.318  25.899  0.00  0.00    -0.246 OA
ENDBRANCH  75  76
ENDBRANCH  54  75
ENDBRANCH  50  54
ENDBRANCH  49  51
BRANCH  49  79
ATOM     79  CB  THR A   4     -13.064  25.693  25.952  0.00  0.00    +0.137 C 
ATOM     80  CG2 THR A   4     -14.481  26.257  26.021  0.00  0.00    +0.034 C 
BRANCH  79  81
ATOM     81  OG1 THR A   4     -12.704  25.252  27.268  0.00  0.00    -0.382 OA
ATOM     82  HG1 THR A   4     -11.774  24.912  27.258  0.00  0.00    +0.210 HD
ENDBRANCH  79  81
ENDBRANCH  49  79
ENDBRANCH  45  49
ENDBRANCH  44  46
ENDBRANCH   1  44
TORSDOF 35
REMARK  Name = ../refined-set-2016/1gno/1gno_pocket.pdb
REMARK  206 active torsions:
REMARK  status: ('A' for Active; 'I' for Inactive)
REMARK    1  A    between atoms: _1  and  _3
REMARK    2  A    between atoms: _3  and  _4
REMARK    3  A    between atoms: _3  and  _6
REMARK    4  A    between atoms: _6  and  _7
REMARK    5  A    between atoms: _7  and  _8
REMARK    6  A    between atoms: _8  and  _9
REMARK    7  A    between atoms: _18  and  _20
REMARK    8  A    between atoms: _20  and  _21
REMARK    9  A    between atoms: _20  and  _23
REMARK   10  A    between atoms: _23  and  _24
REMARK   11  A    between atoms: _27  and  _29
REMARK   12  A    between atoms: _29  and  _30
REMARK   13  A    between atoms: _29  and  _32
REMARK   14  A    between atoms: _32  and  _33
REMARK   15  A    between atoms: _36  and  _38
REMARK   16  A    between atoms: _38  and  _39
REMARK   17  A    between atoms: _38  and  _41
REMARK   18  A    between atoms: _41  and  _42
REMARK   19  A    between atoms: _45  and  _47
REMARK   20  A    between atoms: _47  and  _48
REMARK   21  A    between atoms: _47  and  _50
REMARK   22  A    between atoms: _50  and  _51
REMARK   23  A    between atoms: _54  and  _56
REMARK   24  A    between atoms: _56  and  _57
REMARK   25  A    between atoms: _59  and  _61
REMARK   26  A    between atoms: _61  and  _62
REMARK   27  A    between atoms: _65  and  _67
REMARK   28  A    between atoms: _67  and  _68
REMARK   29  A    between atoms: _67  and  _70
REMARK   30  A    between atoms: _70  and  _71
REMARK   31  A    between atoms: _74  and  _76
REMARK   32  A    between atoms: _76  and  _77
REMARK   33  A    between atoms: _76  and  _79
REMARK   34  A    between atoms: _79  and  _80
REMARK   35  A    between atoms: _83  and  _85
REMARK   36  A    between atoms: _85  and  _86
REMARK   37  A    between atoms: _85  and  _88
REMARK   38  A    between atoms: _88  and  _89
REMARK   39  A    between atoms: _92  and  _94
REMARK   40  A    between atoms: _94  and  _95
REMARK   41  A    between atoms: _94  and  _97
REMARK   42  A    between atoms: _100  and  _102
REMARK   43  A    between atoms: _102  and  _103
REMARK   44  A    between atoms: _102  and  _105
REMARK   45  A    between atoms: _105  and  _106
REMARK   46  A    between atoms: _109  and  _111
REMARK   47  A    between atoms: _111  and  _112
REMARK   48  A    between atoms: _114  and  _116
REMARK   49  A    between atoms: _116  and  _117
REMARK   50  A    between atoms: _119  and  _121
REMARK   51  A    between atoms: _121  and  _122
REMARK   52  A    between atoms: _121  and  _124
REMARK   53  A    between atoms: _124  and  _125
REMARK   54  A    between atoms: _128  and  _130
REMARK   55  A    between atoms: _130  and  _131
REMARK   56  A    between atoms: _133  and  _135
REMARK   57  A    between atoms: _135  and  _136
REMARK   58  A    between atoms: _138  and  _140
REMARK   59  A    between atoms: _140  and  _141
REMARK   60  A    between atoms: _140  and  _143
REMARK   61  A    between atoms: _143  and  _144
REMARK   62  A    between atoms: _147  and  _149
REMARK   63  A    between atoms: _149  and  _150
REMARK   64  A    between atoms: _149  and  _152
REMARK   65  A    between atoms: _152  and  _153
REMARK   66  A    between atoms: _157  and  _158
REMARK   67  A    between atoms: _163  and  _165
REMARK   68  A    between atoms: _165  and  _166
REMARK   69  A    between atoms: _165  and  _168
REMARK   70  A    between atoms: _171  and  _173
REMARK   71  A    between atoms: _173  and  _174
REMARK   72  A    between atoms: _173  and  _176
REMARK   73  A    between atoms: _176  and  _177
REMARK   74  A    between atoms: _182  and  _184
REMARK   75  A    between atoms: _184  and  _185
REMARK   76  A    between atoms: _184  and  _187
REMARK   77  A    between atoms: _187  and  _188
REMARK   78  A    between atoms: _191  and  _193
REMARK   79  A    between atoms: _193  and  _194
REMARK   80  A    between atoms: _193  and  _196
REMARK   81  A    between atoms: _196  and  _197
REMARK   82  A    between atoms: _200  and  _202
REMARK   83  A    between atoms: _202  and  _203
REMARK   84  A    between atoms: _205  and  _207
REMARK   85  A    between atoms: _207  and  _208
REMARK   86  A    between atoms: _207  and  _210
REMARK   87  A    between atoms: _210  and  _211
REMARK   88  A    between atoms: _211  and  _212
REMARK   89  A    between atoms: _212  and  _213
REMARK   90  A    between atoms: _222  and  _224
REMARK   91  A    between atoms: _224  and  _225
REMARK   92  A    between atoms: _224  and  _227
REMARK   93  A    between atoms: _227  and  _228
REMARK   94  A    between atoms: _228  and  _229
REMARK   95  A    between atoms: _229  and  _230
REMARK   96  A    between atoms: _239  and  _241
REMARK   97  A    between atoms: _241  and  _242
REMARK   98  A    between atoms: _241  and  _244
REMARK   99  A    between atoms: _244  and  _245
REMARK  100  A    between atoms: _248  and  _250
REMARK  101  A    between atoms: _250  and  _251
REMARK  102  A    between atoms: _250  and  _253
REMARK  103  A    between atoms: _253  and  _254
REMARK  104  A    between atoms: _257  and  _259
REMARK  105  A    between atoms: _259  and  _260
REMARK  106  A    between atoms: _259  and  _262
REMARK  107  A    between atoms: _262  and  _263
REMARK  108  A    between atoms: _266  and  _268
REMARK  109  A    between atoms: _268  and  _269
REMARK  110  A    between atoms: _268  and  _271
REMARK  111  A    between atoms: _271  and  _272
REMARK  112  A    between atoms: _275  and  _277
REMARK  113  A    between atoms: _277  and  _278
REMARK  114  A    between atoms: _280  and  _282
REMARK  115  A    between atoms: _282  and  _283
REMARK  116  A    between atoms: _286  and  _288
REMARK  117  A    between atoms: _288  and  _289
REMARK  118  A    between atoms: _288  and  _291
REMARK  119  A    between atoms: _291  and  _292
REMARK  120  A    between atoms: _295  and  _297
REMARK  121  A    between atoms: _297  and  _298
REMARK  122  A    between atoms: _297  and  _300
REMARK  123  A    between atoms: _300  and  _301
REMARK  124  A    between atoms: _304  and  _306
REMARK  125  A    between atoms: _306  and  _307
REMARK  126  A    between atoms: _306  and  _309
REMARK  127  A    between atoms: _309  and  _310
REMARK  128  A    between atoms: _313  and  _315
REMARK  129  A    between atoms: _315  and  _316
REMARK  130  A    between atoms: _315  and  _318
REMARK  131  A    between atoms: _321  and  _323
REMARK  132  A    between atoms: _323  and  _324
REMARK  133  A    between atoms: _323  and  _326
REMARK  134  A    between atoms: _326  and  _327
REMARK  135  A    between atoms: _327  and  _328
REMARK  136  A    between atoms: _328  and  _329
REMARK  137  A    between atoms: _329  and  _330
REMARK  138  A    between atoms: _334  and  _336
REMARK  139  A    between atoms: _336  and  _337
REMARK  140  A    between atoms: _336  and  _339
REMARK  141  A    between atoms: _339  and  _340
REMARK  142  A    between atoms: _340  and  _341
REMARK  143  A    between atoms: _343  and  _345
REMARK  144  A    between atoms: _345  and  _346
REMARK  145  A    between atoms: _345  and  _348
REMARK  146  A    between atoms: _348  and  _349
REMARK  147  A    between atoms: _352  and  _354
REMARK  148  A    between atoms: _354  and  _355
REMARK  149  A    between atoms: _357  and  _359
REMARK  150  A    between atoms: _359  and  _360
REMARK  151  A    between atoms: _362  and  _364
REMARK  152  A    between atoms: _364  and  _365
REMARK  153  A    between atoms: _364  and  _367
REMARK  154  A    between atoms: _367  and  _368
REMARK  155  A    between atoms: _371  and  _373
REMARK  156  A    between atoms: _373  and  _374
REMARK  157  A    between atoms: _376  and  _378
REMARK  158  A    between atoms: _378  and  _379
REMARK  159  A    between atoms: _381  and  _383
REMARK  160  A    between atoms: _383  and  _384
REMARK  161  A    between atoms: _383  and  _386
REMARK  162  A    between atoms: _386  and  _387
REMARK  163  A    between atoms: _393  and  _395
REMARK  164  A    between atoms: _395  and  _396
REMARK  165  A    between atoms: _395  and  _398
REMARK  166  A    between atoms: _398  and  _399
REMARK  167  A    between atoms: _402  and  _404
REMARK  168  A    between atoms: _404  and  _405
REMARK  169  A    between atoms: _404  and  _407
REMARK  170  A    between atoms: _410  and  _412
REMARK  171  A    between atoms: _412  and  _413
REMARK  172  A    between atoms: _412  and  _415
REMARK  173  A    between atoms: _415  and  _416
REMARK  174  A    between atoms: _420  and  _421
REMARK  175  A    between atoms: _426  and  _428
REMARK  176  A    between atoms: _428  and  _429
REMARK  177  A    between atoms: _428  and  _431
REMARK  178  A    between atoms: _431  and  _432
REMARK  179  A    between atoms: _436  and  _437
REMARK  180  A    between atoms: _442  and  _444
REMARK  181  A    between atoms: _444  and  _445
REMARK  182  A    between atoms: _444  and  _447
REMARK  183  A    between atoms: _450  and  _452
REMARK  184  A    between atoms: _452  and  _453
REMARK  185  A    between atoms: _452  and  _455
REMARK  186  A    between atoms: _455  and  _456
REMARK  187  A    between atoms: _461  and  _463
REMARK  188  A    between atoms: _463  and  _464
REMARK  189  A    between atoms: _463  and  _466
REMARK  190  A    between atoms: _466  and  _467
REMARK  191  A    between atoms: _470  and  _472
REMARK  192  A    between atoms: _472  and  _473
REMARK  193  A    between atoms: _472  and  _475
REMARK  194  A    between atoms: _475  and  _476
REMARK  195  A    between atoms: _479  and  _481
REMARK  196  A    between atoms: _481  and  _482
REMARK  197  A    between atoms: _484  and  _486
REMARK  198  A    between atoms: _486  and  _487
REMARK  199  A    between atoms: _486  and  _489
REMARK  200  A    between atoms: _489  and  _490
REMARK  201  A    between atoms: _490  and  _491
REMARK  202  A    between atoms: _491  and  _492
REMARK  203  A    between atoms: _501  and  _503
REMARK  204  A    between atoms: _503  and  _504
REMARK  205  A    between atoms: _503  and  _506
REMARK  206  A    between atoms: _506  and  _507
REMARK                            x       y       z     vdW  Elec       q    Type
REMARK                         _______ _______ _______ _____ _____    ______ ____
ROOT
ATOM      1  C   GLY A   5      -4.603  13.492  26.799  0.00  0.00    +0.243 C 
ATOM      2  N   ILE A   6      -5.221  13.653  27.961  0.00  0.00    -0.297 N 
ATOM      3  H   ILE A   6      -6.200  14.005  27.959  0.00  0.00    +0.150 HD
ATOM      4  O   GLY A   5      -3.455  13.075  26.844  0.00  0.00    -0.273 OA
ENDROOT
BRANCH   2   5
ATOM      5  CA  ILE A   6      -4.587  13.357  29.244  0.00  0.00    +0.149 C 
BRANCH   5   6
ATOM      6  C   ILE A   6      -4.180  11.909  29.390  0.00  0.00    +0.241 C 
ATOM      7  O   ILE A   6      -3.103  11.580  29.961  0.00  0.00    -0.273 OA
ATOM      8  N   GLY A   7      -4.921  10.916  28.901  0.00  0.00    -0.295 N 
ATOM      9  H   GLY A   7      -5.795  11.086  28.364  0.00  0.00    +0.150 HD
BRANCH   8  10
ATOM     10  CA  GLY A   7      -4.419   9.574  29.173  0.00  0.00    +0.176 C 
BRANCH  10  11
ATOM     11  C   GLY A   7      -3.330   9.134  28.204  0.00  0.00    +0.243 C 
ATOM     12  O   GLY A   7      -2.551   8.203  28.512  0.00  0.00    -0.273 OA
ATOM     13  N   GLY A   8      -3.220   9.745  27.023  0.00  0.00    -0.295 N 
ATOM     14  H   GLY A   8      -3.726  10.635  26.842  0.00  0.00    +0.150 HD
BRANCH  13  15
ATOM     15  CA  GLY A   8      -2.381   9.149  25.987  0.00  0.00    +0.176 C 
BRANCH  15  16
ATOM     16  C   GLY A   8      -3.049   9.268  24.613  0.00  0.00    +0.243 C 
ATOM     17  O   GLY A   8      -3.968  10.076  24.437  0.00  0.00    -0.273 OA
ATOM     18  N   PHE A   9      -2.597   8.464  23.649  0.00  0.00    -0.297 N 
ATOM     19  H   PHE A   9      -1.945   7.683  23.865  0.00  0.00    +0.150 HD
BRANCH  18  20
ATOM     20  CA  PHE A   9      -3.044   8.712  22.284  0.00  0.00    +0.153 C 
BRANCH  20  21
ATOM     21  C   PHE A   9      -4.130   7.787  21.804  0.00  0.00    +0.241 C 
ATOM     22  O   PHE A   9      -4.161   6.634  22.231  0.00  0.00    -0.273 OA
ATOM     23  N   ILE A  10      -5.042   8.285  20.960  0.00  0.00    -0.298 N 
ATOM     24  H   ILE A  10      -5.068   9.294  20.709  0.00  0.00    +0.150 HD
BRANCH  23  25
ATOM     25  CA  ILE A  10      -6.006   7.319  20.408  0.00  0.00    +0.137 C 
BRANCH  25  26
ATOM     26  C   ILE A  10      -5.995   7.452  18.874  0.00  0.00    +0.227 C 
ATOM     27  O   ILE A  10      -5.702   8.467  18.285  0.00  0.00    -0.286 OA
ENDBRANCH  25  26
BRANCH  25  28
ATOM     28  CB  ILE A  10      -7.474   7.335  20.897  0.00  0.00    +0.026 C 
ATOM     29  CG2 ILE A  10      -7.587   7.109  22.407  0.00  0.00    +0.002 C 
BRANCH  28  30
ATOM     30  CG1 ILE A  10      -8.185   8.597  20.477  0.00  0.00    +0.002 C 
ATOM     31  CD1 ILE A  10      -9.645   8.743  20.750  0.00  0.00    +0.000 C 
ENDBRANCH  28  30
ENDBRANCH  25  28
ENDBRANCH  23  25
ENDBRANCH  20  21
BRANCH  20  32
ATOM     32  CB  PHE A   9      -1.893   8.494  21.328  0.00  0.00    +0.055 C 
BRANCH  32  33
ATOM     33  CG  PHE A   9      -1.004   7.314  21.493  0.00  0.00    -0.020 A 
ATOM     34  CD2 PHE A   9       0.131   7.386  22.286  0.00  0.00    -0.004 A 
ATOM     35  CE2 PHE A   9       1.013   6.334  22.405  0.00  0.00    -0.000 A 
ATOM     36  CZ  PHE A   9       0.745   5.145  21.752  0.00  0.00    -0.000 A 
ATOM     37  CE1 PHE A   9      -0.368   5.067  20.960  0.00  0.00    -0.000 A 
ATOM     38  CD1 PHE A   9      -1.239   6.138  20.827  0.00  0.00    -0.004 A 
ENDBRANCH  32  33
ENDBRANCH  20  32
ENDBRANCH  18  20
ENDBRANCH  15  16
ENDBRANCH  13  15
ENDBRANCH  10  11
ENDBRANCH   8  10
ENDBRANCH   5   6
BRANCH   5  39
ATOM     39  CB  ILE A   6      -5.654  13.809  30.259  0.00  0.00    +0.027 C 
ATOM     40  CG2 ILE A   6      -6.657  12.710  30.611  0.00  0.00    +0.002 C 
BRANCH  39  41
ATOM     41  CG1 ILE A   6      -4.968  14.341  31.497  0.00  0.00    +0.002 C 
ATOM     42  CD1 ILE A   6      -4.420  15.755  31.258  0.00  0.00    +0.000 C 
ENDBRANCH  39  41
ENDBRANCH   5  39
ENDBRANCH   2   5
BRANCH   1  43
ATOM     43  CA  GLY A   5      -5.351  13.780  25.501  0.00  0.00    +0.176 C 
BRANCH  43  45
ATOM     44  C   GLY A   4      -4.595  13.589  23.166  0.00  0.00    +0.243 C 
ATOM     45  N   GLY A   5      -4.637  13.130  24.400  0.00  0.00    -0.295 N 
ATOM     46  H   GLY A   5      -4.129  12.246  24.606  0.00  0.00    +0.150 HD
ATOM     47  O   GLY A   4      -5.265  14.565  22.857  0.00  0.00    -0.273 OA
BRANCH  44  48
ATOM     48  CA  GLY A   4      -3.715  12.847  22.160  0.00  0.00    +0.176 C 
BRANCH  48  50
ATOM     49  C   ILE A   3      -4.529  12.069  19.995  0.00  0.00    +0.241 C 
ATOM     50  N   GLY A   4      -4.095  13.073  20.752  0.00  0.00    -0.295 N 
ATOM     51  H   GLY A   4      -4.023  14.028  20.347  0.00  0.00    +0.150 HD
ATOM     52  O   ILE A   3      -4.537  10.894  20.406  0.00  0.00    -0.273 OA
BRANCH  49  53
ATOM     53  CA  ILE A   3      -5.009  12.430  18.595  0.00  0.00    +0.149 C 
BRANCH  53  55
ATOM     54  C   MET A   2      -4.227  11.214  16.630  0.00  0.00    +0.241 C 
ATOM     55  N   ILE A   3      -4.909  11.256  17.750  0.00  0.00    -0.297 N 
ATOM     56  H   ILE A   3      -5.408  10.395  18.050  0.00  0.00    +0.150 HD
ATOM     57  O   MET A   2      -3.705  12.245  16.231  0.00  0.00    -0.273 OA
BRANCH  54  58
ATOM     58  CA  MET A   2      -4.146   9.914  15.840  0.00  0.00    +0.149 C 
BRANCH  58  60
ATOM     59  C   LYS A   1      -5.391   9.673  13.780  0.00  0.00    +0.238 C 
ATOM     60  N   MET A   2      -4.363  10.163  14.415  0.00  0.00    -0.297 N 
ATOM     61  H   MET A   2      -3.678  10.747  13.894  0.00  0.00    +0.150 HD
ATOM     62  O   LYS A   1      -6.157   8.852  14.302  0.00  0.00    -0.274 OA
BRANCH  59  63
ATOM     63  CA  LYS A   1      -5.711  10.026  12.346  0.00  0.00    +0.145 C 
BRANCH  63  64
ATOM     64  N   LYS A   1      -6.434   8.900  11.756  0.00  0.00    -0.238 NA
ATOM     65  H   LYS A   1      -7.185   8.422  12.294  0.00  0.00    +0.142 HD
ENDBRANCH  63  64
BRANCH  63  66
ATOM     66  CB  LYS A   1      -6.596  11.273  12.335  0.00  0.00    +0.026 C 
BRANCH  66  67
ATOM     67  CG  LYS A   1      -5.757  12.547  12.319  0.00  0.00    -0.000 C 
BRANCH  67  68
ATOM     68  CD  LYS A   1      -6.539  13.745  12.858  0.00  0.00    -0.024 C 
BRANCH  68  69
ATOM     69  CE  LYS A   1      -5.868  15.097  12.631  0.00  0.00    -0.086 C 
BRANCH  69  70
ATOM     70  NZ  LYS A   1      -6.234  16.153  13.617  0.00  0.00    +0.380 N 
ATOM     71  HZ1 LYS A   1      -5.965  15.842  14.572  0.00  0.00    -0.089 HD
ATOM     72  HZ2 LYS A   1      -7.260  16.318  13.581  0.00  0.00    -0.089 HD
ATOM     73  HZ3 LYS A   1      -5.731  17.033  13.383  0.00  0.00    -0.089 HD
ENDBRANCH  69  70
ENDBRANCH  68  69
ENDBRANCH  67  68
ENDBRANCH  66  67
ENDBRANCH  63  66
ENDBRANCH  59  63
ENDBRANCH  58  60
BRANCH  58  74
ATOM     74  CB  MET A   2      -2.734   9.374  16.116  0.00  0.00    +0.041 C 
BRANCH  74  75
ATOM     75  CG  MET A   2      -2.651   7.897  15.692  0.00  0.00    +0.060 C 
BRANCH  75  76
ATOM     76  SD  MET A   2      -1.659   6.982  16.848  0.00  0.00    -0.139 S 
ATOM     77  CE  MET A   2      -2.194   5.284  16.679  0.00  0.00    +0.069 C 
ENDBRANCH  75  76
ENDBRANCH  74  75
ENDBRANCH  58  74
ENDBRANCH  54  58
ENDBRANCH  53  55
BRANCH  53  78
ATOM     78  CB  ILE A   3      -6.442  12.980  18.641  0.00  0.00    +0.027 C 
ATOM     79  CG2 ILE A   3      -7.069  13.112  17.246  0.00  0.00    +0.002 C 
BRANCH  78  80
ATOM     80  CG1 ILE A   3      -7.449  12.081  19.357  0.00  0.00    +0.002 C 
ATOM     81  CD1 ILE A   3      -8.717  12.879  19.601  0.00  0.00    +0.000 C 
ENDBRANCH  78  80
ENDBRANCH  53  78
ENDBRANCH  49  53
ENDBRANCH  48  50
ENDBRANCH  44  48
ENDBRANCH  43  45
ENDBRANCH   1  43
TORSDOF 36
REMARK  Name = ../refined-set-2016/1gno/1gno_pocket.pdb
REMARK  206 active torsions:
REMARK  status: ('A' for Active; 'I' for Inactive)
REMARK    1  A    between atoms: _1  and  _3
REMARK    2  A    between atoms: _3  and  _4
REMARK    3  A    between atoms: _3  and  _6
REMARK    4  A    between atoms: _6  and  _7
REMARK    5  A    between atoms: _7  and  _8
REMARK    6  A    between atoms: _8  and  _9
REMARK    7  A    between atoms: _18  and  _20
REMARK    8  A    between atoms: _20  and  _21
REMARK    9  A    between atoms: _20  and  _23
REMARK   10  A    between atoms: _23  and  _24
REMARK   11  A    between atoms: _27  and  _29
REMARK   12  A    between atoms: _29  and  _30
REMARK   13  A    between atoms: _29  and  _32
REMARK   14  A    between atoms: _32  and  _33
REMARK   15  A    between atoms: _36  and  _38
REMARK   16  A    between atoms: _38  and  _39
REMARK   17  A    between atoms: _38  and  _41
REMARK   18  A    between atoms: _41  and  _42
REMARK   19  A    between atoms: _45  and  _47
REMARK   20  A    between atoms: _47  and  _48
REMARK   21  A    between atoms: _47  and  _50
REMARK   22  A    between atoms: _50  and  _51
REMARK   23  A    between atoms: _54  and  _56
REMARK   24  A    between atoms: _56  and  _57
REMARK   25  A    between atoms: _59  and  _61
REMARK   26  A    between atoms: _61  and  _62
REMARK   27  A    between atoms: _65  and  _67
REMARK   28  A    between atoms: _67  and  _68
REMARK   29  A    between atoms: _67  and  _70
REMARK   30  A    between atoms: _70  and  _71
REMARK   31  A    between atoms: _74  and  _76
REMARK   32  A    between atoms: _76  and  _77
REMARK   33  A    between atoms: _76  and  _79
REMARK   34  A    between atoms: _79  and  _80
REMARK   35  A    between atoms: _83  and  _85
REMARK   36  A    between atoms: _85  and  _86
REMARK   37  A    between atoms: _85  and  _88
REMARK   38  A    between atoms: _88  and  _89
REMARK   39  A    between atoms: _92  and  _94
REMARK   40  A    between atoms: _94  and  _95
REMARK   41  A    between atoms: _94  and  _97
REMARK   42  A    between atoms: _100  and  _102
REMARK   43  A    between atoms: _102  and  _103
REMARK   44  A    between atoms: _102  and  _105
REMARK   45  A    between atoms: _105  and  _106
REMARK   46  A    between atoms: _109  and  _111
REMARK   47  A    between atoms: _111  and  _112
REMARK   48  A    between atoms: _114  and  _116
REMARK   49  A    between atoms: _116  and  _117
REMARK   50  A    between atoms: _119  and  _121
REMARK   51  A    between atoms: _121  and  _122
REMARK   52  A    between atoms: _121  and  _124
REMARK   53  A    between atoms: _124  and  _125
REMARK   54  A    between atoms: _128  and  _130
REMARK   55  A    between atoms: _130  and  _131
REMARK   56  A    between atoms: _133  and  _135
REMARK   57  A    between atoms: _135  and  _136
REMARK   58  A    between atoms: _138  and  _140
REMARK   59  A    between atoms: _140  and  _141
REMARK   60  A    between atoms: _140  and  _143
REMARK   61  A    between atoms: _143  and  _144
REMARK   62  A    between atoms: _147  and  _149
REMARK   63  A    between atoms: _149  and  _150
REMARK   64  A    between atoms: _149  and  _152
REMARK   65  A    between atoms: _152  and  _153
REMARK   66  A    between atoms: _157  and  _158
REMARK   67  A    between atoms: _163  and  _165
REMARK   68  A    between atoms: _165  and  _166
REMARK   69  A    between atoms: _165  and  _168
REMARK   70  A    between atoms: _171  and  _173
REMARK   71  A    between atoms: _173  and  _174
REMARK   72  A    between atoms: _173  and  _176
REMARK   73  A    between atoms: _176  and  _177
REMARK   74  A    between atoms: _182  and  _184
REMARK   75  A    between atoms: _184  and  _185
REMARK   76  A    between atoms: _184  and  _187
REMARK   77  A    between atoms: _187  and  _188
REMARK   78  A    between atoms: _191  and  _193
REMARK   79  A    between atoms: _193  and  _194
REMARK   80  A    between atoms: _193  and  _196
REMARK   81  A    between atoms: _196  and  _197
REMARK   82  A    between atoms: _200  and  _202
REMARK   83  A    between atoms: _202  and  _203
REMARK   84  A    between atoms: _205  and  _207
REMARK   85  A    between atoms: _207  and  _208
REMARK   86  A    between atoms: _207  and  _210
REMARK   87  A    between atoms: _210  and  _211
REMARK   88  A    between atoms: _211  and  _212
REMARK   89  A    between atoms: _212  and  _213
REMARK   90  A    between atoms: _222  and  _224
REMARK   91  A    between atoms: _224  and  _225
REMARK   92  A    between atoms: _224  and  _227
REMARK   93  A    between atoms: _227  and  _228
REMARK   94  A    between atoms: _228  and  _229
REMARK   95  A    between atoms: _229  and  _230
REMARK   96  A    between atoms: _239  and  _241
REMARK   97  A    between atoms: _241  and  _242
REMARK   98  A    between atoms: _241  and  _244
REMARK   99  A    between atoms: _244  and  _245
REMARK  100  A    between atoms: _248  and  _250
REMARK  101  A    between atoms: _250  and  _251
REMARK  102  A    between atoms: _250  and  _253
REMARK  103  A    between atoms: _253  and  _254
REMARK  104  A    between atoms: _257  and  _259
REMARK  105  A    between atoms: _259  and  _260
REMARK  106  A    between atoms: _259  and  _262
REMARK  107  A    between atoms: _262  and  _263
REMARK  108  A    between atoms: _266  and  _268
REMARK  109  A    between atoms: _268  and  _269
REMARK  110  A    between atoms: _268  and  _271
REMARK  111  A    between atoms: _271  and  _272
REMARK  112  A    between atoms: _275  and  _277
REMARK  113  A    between atoms: _277  and  _278
REMARK  114  A    between atoms: _280  and  _282
REMARK  115  A    between atoms: _282  and  _283
REMARK  116  A    between atoms: _286  and  _288
REMARK  117  A    between atoms: _288  and  _289
REMARK  118  A    between atoms: _288  and  _291
REMARK  119  A    between atoms: _291  and  _292
REMARK  120  A    between atoms: _295  and  _297
REMARK  121  A    between atoms: _297  and  _298
REMARK  122  A    between atoms: _297  and  _300
REMARK  123  A    between atoms: _300  and  _301
REMARK  124  A    between atoms: _304  and  _306
REMARK  125  A    between atoms: _306  and  _307
REMARK  126  A    between atoms: _306  and  _309
REMARK  127  A    between atoms: _309  and  _310
REMARK  128  A    between atoms: _313  and  _315
REMARK  129  A    between atoms: _315  and  _316
REMARK  130  A    between atoms: _315  and  _318
REMARK  131  A    between atoms: _321  and  _323
REMARK  132  A    between atoms: _323  and  _324
REMARK  133  A    between atoms: _323  and  _326
REMARK  134  A    between atoms: _326  and  _327
REMARK  135  A    between atoms: _327  and  _328
REMARK  136  A    between atoms: _328  and  _329
REMARK  137  A    between atoms: _329  and  _330
REMARK  138  A    between atoms: _334  and  _336
REMARK  139  A    between atoms: _336  and  _337
REMARK  140  A    between atoms: _336  and  _339
REMARK  141  A    between atoms: _339  and  _340
REMARK  142  A    between atoms: _340  and  _341
REMARK  143  A    between atoms: _343  and  _345
REMARK  144  A    between atoms: _345  and  _346
REMARK  145  A    between atoms: _345  and  _348
REMARK  146  A    between atoms: _348  and  _349
REMARK  147  A    between atoms: _352  and  _354
REMARK  148  A    between atoms: _354  and  _355
REMARK  149  A    between atoms: _357  and  _359
REMARK  150  A    between atoms: _359  and  _360
REMARK  151  A    between atoms: _362  and  _364
REMARK  152  A    between atoms: _364  and  _365
REMARK  153  A    between atoms: _364  and  _367
REMARK  154  A    between atoms: _367  and  _368
REMARK  155  A    between atoms: _371  and  _373
REMARK  156  A    between atoms: _373  and  _374
REMARK  157  A    between atoms: _376  and  _378
REMARK  158  A    between atoms: _378  and  _379
REMARK  159  A    between atoms: _381  and  _383
REMARK  160  A    between atoms: _383  and  _384
REMARK  161  A    between atoms: _383  and  _386
REMARK  162  A    between atoms: _386  and  _387
REMARK  163  A    between atoms: _393  and  _395
REMARK  164  A    between atoms: _395  and  _396
REMARK  165  A    between atoms: _395  and  _398
REMARK  166  A    between atoms: _398  and  _399
REMARK  167  A    between atoms: _402  and  _404
REMARK  168  A    between atoms: _404  and  _405
REMARK  169  A    between atoms: _404  and  _407
REMARK  170  A    between atoms: _410  and  _412
REMARK  171  A    between atoms: _412  and  _413
REMARK  172  A    between atoms: _412  and  _415
REMARK  173  A    between atoms: _415  and  _416
REMARK  174  A    between atoms: _420  and  _421
REMARK  175  A    between atoms: _426  and  _428
REMARK  176  A    between atoms: _428  and  _429
REMARK  177  A    between atoms: _428  and  _431
REMARK  178  A    between atoms: _431  and  _432
REMARK  179  A    between atoms: _436  and  _437
REMARK  180  A    between atoms: _442  and  _444
REMARK  181  A    between atoms: _444  and  _445
REMARK  182  A    between atoms: _444  and  _447
REMARK  183  A    between atoms: _450  and  _452
REMARK  184  A    between atoms: _452  and  _453
REMARK  185  A    between atoms: _452  and  _455
REMARK  186  A    between atoms: _455  and  _456
REMARK  187  A    between atoms: _461  and  _463
REMARK  188  A    between atoms: _463  and  _464
REMARK  189  A    between atoms: _463  and  _466
REMARK  190  A    between atoms: _466  and  _467
REMARK  191  A    between atoms: _470  and  _472
REMARK  192  A    between atoms: _472  and  _473
REMARK  193  A    between atoms: _472  and  _475
REMARK  194  A    between atoms: _475  and  _476
REMARK  195  A    between atoms: _479  and  _481
REMARK  196  A    between atoms: _481  and  _482
REMARK  197  A    between atoms: _484  and  _486
REMARK  198  A    between atoms: _486  and  _487
REMARK  199  A    between atoms: _486  and  _489
REMARK  200  A    between atoms: _489  and  _490
REMARK  201  A    between atoms: _490  and  _491
REMARK  202  A    between atoms: _491  and  _492
REMARK  203  A    between atoms: _501  and  _503
REMARK  204  A    between atoms: _503  and  _504
REMARK  205  A    between atoms: _503  and  _506
REMARK  206  A    between atoms: _506  and  _507
REMARK                            x       y       z     vdW  Elec       q    Type
REMARK                         _______ _______ _______ _____ _____    ______ ____
ROOT
ATOM      1  CA  VAL A   1      -9.626   7.815  15.307  0.00  0.00    +0.133 C 
ENDROOT
BRANCH   1   2
ATOM      2  CB  VAL A   1      -9.979   9.208  15.880  0.00  0.00    +0.023 C 
ATOM      3  CG2 VAL A   1     -10.094   9.276  17.393  0.00  0.00    +0.002 C 
ATOM      4  CG1 VAL A   1      -8.859  10.163  15.502  0.00  0.00    +0.002 C 
ENDBRANCH   1   2
BRANCH   1   5
ATOM      5  N   VAL A   1      -8.269   7.409  15.643  0.00  0.00    -0.239 NA
ATOM      6  H   VAL A   1      -7.480   7.915  15.193  0.00  0.00    +0.142 HD
ENDBRANCH   1   5
BRANCH   1   7
ATOM      7  C   VAL A   1      -9.758   7.909  13.788  0.00  0.00    +0.224 C 
ATOM      8  O   VAL A   1      -8.727   8.077  13.108  0.00  0.00    -0.287 OA
ENDBRANCH   1   7
TORSDOF 3
REMARK  Name = ../refined-set-2016/1gno/1gno_pocket.pdb
REMARK  206 active torsions:
REMARK  status: ('A' for Active; 'I' for Inactive)
REMARK    1  A    between atoms: _1  and  _3
REMARK    2  A    between atoms: _3  and  _4
REMARK    3  A    between atoms: _3  and  _6
REMARK    4  A    between atoms: _6  and  _7
REMARK    5  A    between atoms: _7  and  _8
REMARK    6  A    between atoms: _8  and  _9
REMARK    7  A    between atoms: _18  and  _20
REMARK    8  A    between atoms: _20  and  _21
REMARK    9  A    between atoms: _20  and  _23
REMARK   10  A    between atoms: _23  and  _24
REMARK   11  A    between atoms: _27  and  _29
REMARK   12  A    between atoms: _29  and  _30
REMARK   13  A    between atoms: _29  and  _32
REMARK   14  A    between atoms: _32  and  _33
REMARK   15  A    between atoms: _36  and  _38
REMARK   16  A    between atoms: _38  and  _39
REMARK   17  A    between atoms: _38  and  _41
REMARK   18  A    between atoms: _41  and  _42
REMARK   19  A    between atoms: _45  and  _47
REMARK   20  A    between atoms: _47  and  _48
REMARK   21  A    between atoms: _47  and  _50
REMARK   22  A    between atoms: _50  and  _51
REMARK   23  A    between atoms: _54  and  _56
REMARK   24  A    between atoms: _56  and  _57
REMARK   25  A    between atoms: _59  and  _61
REMARK   26  A    between atoms: _61  and  _62
REMARK   27  A    between atoms: _65  and  _67
REMARK   28  A    between atoms: _67  and  _68
REMARK   29  A    between atoms: _67  and  _70
REMARK   30  A    between atoms: _70  and  _71
REMARK   31  A    between atoms: _74  and  _76
REMARK   32  A    between atoms: _76  and  _77
REMARK   33  A    between atoms: _76  and  _79
REMARK   34  A    between atoms: _79  and  _80
REMARK   35  A    between atoms: _83  and  _85
REMARK   36  A    between atoms: _85  and  _86
REMARK   37  A    between atoms: _85  and  _88
REMARK   38  A    between atoms: _88  and  _89
REMARK   39  A    between atoms: _92  and  _94
REMARK   40  A    between atoms: _94  and  _95
REMARK   41  A    between atoms: _94  and  _97
REMARK   42  A    between atoms: _100  and  _102
REMARK   43  A    between atoms: _102  and  _103
REMARK   44  A    between atoms: _102  and  _105
REMARK   45  A    between atoms: _105  and  _106
REMARK   46  A    between atoms: _109  and  _111
REMARK   47  A    between atoms: _111  and  _112
REMARK   48  A    between atoms: _114  and  _116
REMARK   49  A    between atoms: _116  and  _117
REMARK   50  A    between atoms: _119  and  _121
REMARK   51  A    between atoms: _121  and  _122
REMARK   52  A    between atoms: _121  and  _124
REMARK   53  A    between atoms: _124  and  _125
REMARK   54  A    between atoms: _128  and  _130
REMARK   55  A    between atoms: _130  and  _131
REMARK   56  A    between atoms: _133  and  _135
REMARK   57  A    between atoms: _135  and  _136
REMARK   58  A    between atoms: _138  and  _140
REMARK   59  A    between atoms: _140  and  _141
REMARK   60  A    between atoms: _140  and  _143
REMARK   61  A    between atoms: _143  and  _144
REMARK   62  A    between atoms: _147  and  _149
REMARK   63  A    between atoms: _149  and  _150
REMARK   64  A    between atoms: _149  and  _152
REMARK   65  A    between atoms: _152  and  _153
REMARK   66  A    between atoms: _157  and  _158
REMARK   67  A    between atoms: _163  and  _165
REMARK   68  A    between atoms: _165  and  _166
REMARK   69  A    between atoms: _165  and  _168
REMARK   70  A    between atoms: _171  and  _173
REMARK   71  A    between atoms: _173  and  _174
REMARK   72  A    between atoms: _173  and  _176
REMARK   73  A    between atoms: _176  and  _177
REMARK   74  A    between atoms: _182  and  _184
REMARK   75  A    between atoms: _184  and  _185
REMARK   76  A    between atoms: _184  and  _187
REMARK   77  A    between atoms: _187  and  _188
REMARK   78  A    between atoms: _191  and  _193
REMARK   79  A    between atoms: _193  and  _194
REMARK   80  A    between atoms: _193  and  _196
REMARK   81  A    between atoms: _196  and  _197
REMARK   82  A    between atoms: _200  and  _202
REMARK   83  A    between atoms: _202  and  _203
REMARK   84  A    between atoms: _205  and  _207
REMARK   85  A    between atoms: _207  and  _208
REMARK   86  A    between atoms: _207  and  _210
REMARK   87  A    between atoms: _210  and  _211
REMARK   88  A    between atoms: _211  and  _212
REMARK   89  A    between atoms: _212  and  _213
REMARK   90  A    between atoms: _222  and  _224
REMARK   91  A    between atoms: _224  and  _225
REMARK   92  A    between atoms: _224  and  _227
REMARK   93  A    between atoms: _227  and  _228
REMARK   94  A    between atoms: _228  and  _229
REMARK   95  A    between atoms: _229  and  _230
REMARK   96  A    between atoms: _239  and  _241
REMARK   97  A    between atoms: _241  and  _242
REMARK   98  A    between atoms: _241  and  _244
REMARK   99  A    between atoms: _244  and  _245
REMARK  100  A    between atoms: _248  and  _250
REMARK  101  A    between atoms: _250  and  _251
REMARK  102  A    between atoms: _250  and  _253
REMARK  103  A    between atoms: _253  and  _254
REMARK  104  A    between atoms: _257  and  _259
REMARK  105  A    between atoms: _259  and  _260
REMARK  106  A    between atoms: _259  and  _262
REMARK  107  A    between atoms: _262  and  _263
REMARK  108  A    between atoms: _266  and  _268
REMARK  109  A    between atoms: _268  and  _269
REMARK  110  A    between atoms: _268  and  _271
REMARK  111  A    between atoms: _271  and  _272
REMARK  112  A    between atoms: _275  and  _277
REMARK  113  A    between atoms: _277  and  _278
REMARK  114  A    between atoms: _280  and  _282
REMARK  115  A    between atoms: _282  and  _283
REMARK  116  A    between atoms: _286  and  _288
REMARK  117  A    between atoms: _288  and  _289
REMARK  118  A    between atoms: _288  and  _291
REMARK  119  A    between atoms: _291  and  _292
REMARK  120  A    between atoms: _295  and  _297
REMARK  121  A    between atoms: _297  and  _298
REMARK  122  A    between atoms: _297  and  _300
REMARK  123  A    between atoms: _300  and  _301
REMARK  124  A    between atoms: _304  and  _306
REMARK  125  A    between atoms: _306  and  _307
REMARK  126  A    between atoms: _306  and  _309
REMARK  127  A    between atoms: _309  and  _310
REMARK  128  A    between atoms: _313  and  _315
REMARK  129  A    between atoms: _315  and  _316
REMARK  130  A    between atoms: _315  and  _318
REMARK  131  A    between atoms: _321  and  _323
REMARK  132  A    between atoms: _323  and  _324
REMARK  133  A    between atoms: _323  and  _326
REMARK  134  A    between atoms: _326  and  _327
REMARK  135  A    between atoms: _327  and  _328
REMARK  136  A    between atoms: _328  and  _329
REMARK  137  A    between atoms: _329  and  _330
REMARK  138  A    between atoms: _334  and  _336
REMARK  139  A    between atoms: _336  and  _337
REMARK  140  A    between atoms: _336  and  _339
REMARK  141  A    between atoms: _339  and  _340
REMARK  142  A    between atoms: _340  and  _341
REMARK  143  A    between atoms: _343  and  _345
REMARK  144  A    between atoms: _345  and  _346
REMARK  145  A    between atoms: _345  and  _348
REMARK  146  A    between atoms: _348  and  _349
REMARK  147  A    between atoms: _352  and  _354
REMARK  148  A    between atoms: _354  and  _355
REMARK  149  A    between atoms: _357  and  _359
REMARK  150  A    between atoms: _359  and  _360
REMARK  151  A    between atoms: _362  and  _364
REMARK  152  A    between atoms: _364  and  _365
REMARK  153  A    between atoms: _364  and  _367
REMARK  154  A    between atoms: _367  and  _368
REMARK  155  A    between atoms: _371  and  _373
REMARK  156  A    between atoms: _373  and  _374
REMARK  157  A    between atoms: _376  and  _378
REMARK  158  A    between atoms: _378  and  _379
REMARK  159  A    between atoms: _381  and  _383
REMARK  160  A    between atoms: _383  and  _384
REMARK  161  A    between atoms: _383  and  _386
REMARK  162  A    between atoms: _386  and  _387
REMARK  163  A    between atoms: _393  and  _395
REMARK  164  A    between atoms: _395  and  _396
REMARK  165  A    between atoms: _395  and  _398
REMARK  166  A    between atoms: _398  and  _399
REMARK  167  A    between atoms: _402  and  _404
REMARK  168  A    between atoms: _404  and  _405
REMARK  169  A    between atoms: _404  and  _407
REMARK  170  A    between atoms: _410  and  _412
REMARK  171  A    between atoms: _412  and  _413
REMARK  172  A    between atoms: _412  and  _415
REMARK  173  A    between atoms: _415  and  _416
REMARK  174  A    between atoms: _420  and  _421
REMARK  175  A    between atoms: _426  and  _428
REMARK  176  A    between atoms: _428  and  _429
REMARK  177  A    between atoms: _428  and  _431
REMARK  178  A    between atoms: _431  and  _432
REMARK  179  A    between atoms: _436  and  _437
REMARK  180  A    between atoms: _442  and  _444
REMARK  181  A    between atoms: _444  and  _445
REMARK  182  A    between atoms: _444  and  _447
REMARK  183  A    between atoms: _450  and  _452
REMARK  184  A    between atoms: _452  and  _453
REMARK  185  A    between atoms: _452  and  _455
REMARK  186  A    between atoms: _455  and  _456
REMARK  187  A    between atoms: _461  and  _463
REMARK  188  A    between atoms: _463  and  _464
REMARK  189  A    between atoms: _463  and  _466
REMARK  190  A    between atoms: _466  and  _467
REMARK  191  A    between atoms: _470  and  _472
REMARK  192  A    between atoms: _472  and  _473
REMARK  193  A    between atoms: _472  and  _475
REMARK  194  A    between atoms: _475  and  _476
REMARK  195  A    between atoms: _479  and  _481
REMARK  196  A    between atoms: _481  and  _482
REMARK  197  A    between atoms: _484  and  _486
REMARK  198  A    between atoms: _486  and  _487
REMARK  199  A    between atoms: _486  and  _489
REMARK  200  A    between atoms: _489  and  _490
REMARK  201  A    between atoms: _490  and  _491
REMARK  202  A    between atoms: _491  and  _492
REMARK  203  A    between atoms: _501  and  _503
REMARK  204  A    between atoms: _503  and  _504
REMARK  205  A    between atoms: _503  and  _506
REMARK  206  A    between atoms: _506  and  _507
REMARK                            x       y       z     vdW  Elec       q    Type
REMARK                         _______ _______ _______ _____ _____    ______ ____
ROOT
ATOM      1  CA  LEU A   1     -13.350  12.467  14.342  0.00  0.00    +0.133 C 
ENDROOT
BRANCH   1   2
ATOM      2  N   LEU A   1     -14.225  13.560  14.051  0.00  0.00    -0.239 NA
ATOM      3  H   LEU A   1     -14.549  14.100  14.879  0.00  0.00    +0.142 HD
ENDBRANCH   1   2
BRANCH   1   4
ATOM      4  C   LEU A   1     -14.163  11.438  15.119  0.00  0.00    +0.224 C 
ATOM      5  O   LEU A   1     -14.839  11.824  16.070  0.00  0.00    -0.287 OA
ENDBRANCH   1   4
BRANCH   1   6
ATOM      6  CB  LEU A   1     -12.183  12.989  15.191  0.00  0.00    +0.025 C 
BRANCH   6   7
ATOM      7  CG  LEU A   1     -11.271  14.052  14.573  0.00  0.00    +0.002 C 
ATOM      8  CD2 LEU A   1     -10.011  14.198  15.410  0.00  0.00    +0.000 C 
ATOM      9  CD1 LEU A   1     -10.858  13.604  13.192  0.00  0.00    +0.000 C 
ENDBRANCH   6   7
ENDBRANCH   1   6
TORSDOF 4
REMARK  Name = ../refined-set-2016/1gno/1gno_pocket.pdb
REMARK  206 active torsions:
REMARK  status: ('A' for Active; 'I' for Inactive)
REMARK    1  A    between atoms: _1  and  _3
REMARK    2  A    between atoms: _3  and  _4
REMARK    3  A    between atoms: _3  and  _6
REMARK    4  A    between atoms: _6  and  _7
REMARK    5  A    between atoms: _7  and  _8
REMARK    6  A    between atoms: _8  and  _9
REMARK    7  A    between atoms: _18  and  _20
REMARK    8  A    between atoms: _20  and  _21
REMARK    9  A    between atoms: _20  and  _23
REMARK   10  A    between atoms: _23  and  _24
REMARK   11  A    between atoms: _27  and  _29
REMARK   12  A    between atoms: _29  and  _30
REMARK   13  A    between atoms: _29  and  _32
REMARK   14  A    between atoms: _32  and  _33
REMARK   15  A    between atoms: _36  and  _38
REMARK   16  A    between atoms: _38  and  _39
REMARK   17  A    between atoms: _38  and  _41
REMARK   18  A    between atoms: _41  and  _42
REMARK   19  A    between atoms: _45  and  _47
REMARK   20  A    between atoms: _47  and  _48
REMARK   21  A    between atoms: _47  and  _50
REMARK   22  A    between atoms: _50  and  _51
REMARK   23  A    between atoms: _54  and  _56
REMARK   24  A    between atoms: _56  and  _57
REMARK   25  A    between atoms: _59  and  _61
REMARK   26  A    between atoms: _61  and  _62
REMARK   27  A    between atoms: _65  and  _67
REMARK   28  A    between atoms: _67  and  _68
REMARK   29  A    between atoms: _67  and  _70
REMARK   30  A    between atoms: _70  and  _71
REMARK   31  A    between atoms: _74  and  _76
REMARK   32  A    between atoms: _76  and  _77
REMARK   33  A    between atoms: _76  and  _79
REMARK   34  A    between atoms: _79  and  _80
REMARK   35  A    between atoms: _83  and  _85
REMARK   36  A    between atoms: _85  and  _86
REMARK   37  A    between atoms: _85  and  _88
REMARK   38  A    between atoms: _88  and  _89
REMARK   39  A    between atoms: _92  and  _94
REMARK   40  A    between atoms: _94  and  _95
REMARK   41  A    between atoms: _94  and  _97
REMARK   42  A    between atoms: _100  and  _102
REMARK   43  A    between atoms: _102  and  _103
REMARK   44  A    between atoms: _102  and  _105
REMARK   45  A    between atoms: _105  and  _106
REMARK   46  A    between atoms: _109  and  _111
REMARK   47  A    between atoms: _111  and  _112
REMARK   48  A    between atoms: _114  and  _116
REMARK   49  A    between atoms: _116  and  _117
REMARK   50  A    between atoms: _119  and  _121
REMARK   51  A    between atoms: _121  and  _122
REMARK   52  A    between atoms: _121  and  _124
REMARK   53  A    between atoms: _124  and  _125
REMARK   54  A    between atoms: _128  and  _130
REMARK   55  A    between atoms: _130  and  _131
REMARK   56  A    between atoms: _133  and  _135
REMARK   57  A    between atoms: _135  and  _136
REMARK   58  A    between atoms: _138  and  _140
REMARK   59  A    between atoms: _140  and  _141
REMARK   60  A    between atoms: _140  and  _143
REMARK   61  A    between atoms: _143  and  _144
REMARK   62  A    between atoms: _147  and  _149
REMARK   63  A    between atoms: _149  and  _150
REMARK   64  A    between atoms: _149  and  _152
REMARK   65  A    between atoms: _152  and  _153
REMARK   66  A    between atoms: _157  and  _158
REMARK   67  A    between atoms: _163  and  _165
REMARK   68  A    between atoms: _165  and  _166
REMARK   69  A    between atoms: _165  and  _168
REMARK   70  A    between atoms: _171  and  _173
REMARK   71  A    between atoms: _173  and  _174
REMARK   72  A    between atoms: _173  and  _176
REMARK   73  A    between atoms: _176  and  _177
REMARK   74  A    between atoms: _182  and  _184
REMARK   75  A    between atoms: _184  and  _185
REMARK   76  A    between atoms: _184  and  _187
REMARK   77  A    between atoms: _187  and  _188
REMARK   78  A    between atoms: _191  and  _193
REMARK   79  A    between atoms: _193  and  _194
REMARK   80  A    between atoms: _193  and  _196
REMARK   81  A    between atoms: _196  and  _197
REMARK   82  A    between atoms: _200  and  _202
REMARK   83  A    between atoms: _202  and  _203
REMARK   84  A    between atoms: _205  and  _207
REMARK   85  A    between atoms: _207  and  _208
REMARK   86  A    between atoms: _207  and  _210
REMARK   87  A    between atoms: _210  and  _211
REMARK   88  A    between atoms: _211  and  _212
REMARK   89  A    between atoms: _212  and  _213
REMARK   90  A    between atoms: _222  and  _224
REMARK   91  A    between atoms: _224  and  _225
REMARK   92  A    between atoms: _224  and  _227
REMARK   93  A    between atoms: _227  and  _228
REMARK   94  A    between atoms: _228  and  _229
REMARK   95  A    between atoms: _229  and  _230
REMARK   96  A    between atoms: _239  and  _241
REMARK   97  A    between atoms: _241  and  _242
REMARK   98  A    between atoms: _241  and  _244
REMARK   99  A    between atoms: _244  and  _245
REMARK  100  A    between atoms: _248  and  _250
REMARK  101  A    between atoms: _250  and  _251
REMARK  102  A    between atoms: _250  and  _253
REMARK  103  A    between atoms: _253  and  _254
REMARK  104  A    between atoms: _257  and  _259
REMARK  105  A    between atoms: _259  and  _260
REMARK  106  A    between atoms: _259  and  _262
REMARK  107  A    between atoms: _262  and  _263
REMARK  108  A    between atoms: _266  and  _268
REMARK  109  A    between atoms: _268  and  _269
REMARK  110  A    between atoms: _268  and  _271
REMARK  111  A    between atoms: _271  and  _272
REMARK  112  A    between atoms: _275  and  _277
REMARK  113  A    between atoms: _277  and  _278
REMARK  114  A    between atoms: _280  and  _282
REMARK  115  A    between atoms: _282  and  _283
REMARK  116  A    between atoms: _286  and  _288
REMARK  117  A    between atoms: _288  and  _289
REMARK  118  A    between atoms: _288  and  _291
REMARK  119  A    between atoms: _291  and  _292
REMARK  120  A    between atoms: _295  and  _297
REMARK  121  A    between atoms: _297  and  _298
REMARK  122  A    between atoms: _297  and  _300
REMARK  123  A    between atoms: _300  and  _301
REMARK  124  A    between atoms: _304  and  _306
REMARK  125  A    between atoms: _306  and  _307
REMARK  126  A    between atoms: _306  and  _309
REMARK  127  A    between atoms: _309  and  _310
REMARK  128  A    between atoms: _313  and  _315
REMARK  129  A    between atoms: _315  and  _316
REMARK  130  A    between atoms: _315  and  _318
REMARK  131  A    between atoms: _321  and  _323
REMARK  132  A    between atoms: _323  and  _324
REMARK  133  A    between atoms: _323  and  _326
REMARK  134  A    between atoms: _326  and  _327
REMARK  135  A    between atoms: _327  and  _328
REMARK  136  A    between atoms: _328  and  _329
REMARK  137  A    between atoms: _329  and  _330
REMARK  138  A    between atoms: _334  and  _336
REMARK  139  A    between atoms: _336  and  _337
REMARK  140  A    between atoms: _336  and  _339
REMARK  141  A    between atoms: _339  and  _340
REMARK  142  A    between atoms: _340  and  _341
REMARK  143  A    between atoms: _343  and  _345
REMARK  144  A    between atoms: _345  and  _346
REMARK  145  A    between atoms: _345  and  _348
REMARK  146  A    between atoms: _348  and  _349
REMARK  147  A    between atoms: _352  and  _354
REMARK  148  A    between atoms: _354  and  _355
REMARK  149  A    between atoms: _357  and  _359
REMARK  150  A    between atoms: _359  and  _360
REMARK  151  A    between atoms: _362  and  _364
REMARK  152  A    between atoms: _364  and  _365
REMARK  153  A    between atoms: _364  and  _367
REMARK  154  A    between atoms: _367  and  _368
REMARK  155  A    between atoms: _371  and  _373
REMARK  156  A    between atoms: _373  and  _374
REMARK  157  A    between atoms: _376  and  _378
REMARK  158  A    between atoms: _378  and  _379
REMARK  159  A    between atoms: _381  and  _383
REMARK  160  A    between atoms: _383  and  _384
REMARK  161  A    between atoms: _383  and  _386
REMARK  162  A    between atoms: _386  and  _387
REMARK  163  A    between atoms: _393  and  _395
REMARK  164  A    between atoms: _395  and  _396
REMARK  165  A    between atoms: _395  and  _398
REMARK  166  A    between atoms: _398  and  _399
REMARK  167  A    between atoms: _402  and  _404
REMARK  168  A    between atoms: _404  and  _405
REMARK  169  A    between atoms: _404  and  _407
REMARK  170  A    between atoms: _410  and  _412
REMARK  171  A    between atoms: _412  and  _413
REMARK  172  A    between atoms: _412  and  _415
REMARK  173  A    between atoms: _415  and  _416
REMARK  174  A    between atoms: _420  and  _421
REMARK  175  A    between atoms: _426  and  _428
REMARK  176  A    between atoms: _428  and  _429
REMARK  177  A    between atoms: _428  and  _431
REMARK  178  A    between atoms: _431  and  _432
REMARK  179  A    between atoms: _436  and  _437
REMARK  180  A    between atoms: _442  and  _444
REMARK  181  A    between atoms: _444  and  _445
REMARK  182  A    between atoms: _444  and  _447
REMARK  183  A    between atoms: _450  and  _452
REMARK  184  A    between atoms: _452  and  _453
REMARK  185  A    between atoms: _452  and  _455
REMARK  186  A    between atoms: _455  and  _456
REMARK  187  A    between atoms: _461  and  _463
REMARK  188  A    between atoms: _463  and  _464
REMARK  189  A    between atoms: _463  and  _466
REMARK  190  A    between atoms: _466  and  _467
REMARK  191  A    between atoms: _470  and  _472
REMARK  192  A    between atoms: _472  and  _473
REMARK  193  A    between atoms: _472  and  _475
REMARK  194  A    between atoms: _475  and  _476
REMARK  195  A    between atoms: _479  and  _481
REMARK  196  A    between atoms: _481  and  _482
REMARK  197  A    between atoms: _484  and  _486
REMARK  198  A    between atoms: _486  and  _487
REMARK  199  A    between atoms: _486  and  _489
REMARK  200  A    between atoms: _489  and  _490
REMARK  201  A    between atoms: _490  and  _491
REMARK  202  A    between atoms: _491  and  _492
REMARK  203  A    between atoms: _501  and  _503
REMARK  204  A    between atoms: _503  and  _504
REMARK  205  A    between atoms: _503  and  _506
REMARK  206  A    between atoms: _506  and  _507
REMARK                            x       y       z     vdW  Elec       q    Type
REMARK                         _______ _______ _______ _____ _____    ______ ____
ROOT
ATOM      1  CA  ILE A   6     -16.745  16.137  22.680  0.00  0.00    +0.149 C 
ENDROOT
BRANCH   1   2
ATOM      2  C   ILE A   6     -16.881  17.036  21.447  0.00  0.00    +0.241 C 
ATOM      3  N   ILE A   7     -17.481  18.194  21.549  0.00  0.00    -0.297 N 
ATOM      4  H   ILE A   7     -17.971  18.393  22.445  0.00  0.00    +0.150 HD
ATOM      5  O   ILE A   6     -16.439  16.688  20.376  0.00  0.00    -0.273 OA
BRANCH   3   6
ATOM      6  CA  ILE A   7     -17.529  19.228  20.532  0.00  0.00    +0.149 C 
BRANCH   6   7
ATOM      7  C   ILE A   7     -16.313  20.117  20.861  0.00  0.00    +0.241 C 
ATOM      8  O   ILE A   7     -16.315  20.633  21.983  0.00  0.00    -0.273 OA
ATOM      9  N   GLY A   8     -15.351  20.360  19.980  0.00  0.00    -0.295 N 
ATOM     10  H   GLY A   8     -15.476  20.066  18.990  0.00  0.00    +0.150 HD
BRANCH   9  11
ATOM     11  CA  GLY A   8     -14.124  21.031  20.379  0.00  0.00    +0.176 C 
BRANCH  11  12
ATOM     12  C   GLY A   8     -14.051  22.377  19.755  0.00  0.00    +0.243 C 
ATOM     13  N   ARG A   9     -12.949  23.110  19.757  0.00  0.00    -0.297 N 
ATOM     14  H   ARG A   9     -12.076  22.719  20.166  0.00  0.00    +0.150 HD
ATOM     15  O   GLY A   8     -15.113  22.711  19.261  0.00  0.00    -0.273 OA
BRANCH  13  16
ATOM     16  CA  ARG A   9     -12.937  24.448  19.199  0.00  0.00    +0.149 C 
BRANCH  16  17
ATOM     17  C   ARG A   9     -13.147  24.508  17.689  0.00  0.00    +0.241 C 
ATOM     18  O   ARG A   9     -13.567  25.569  17.211  0.00  0.00    -0.273 OA
ATOM     19  N   ASN A  10     -12.933  23.506  16.847  0.00  0.00    -0.298 N 
ATOM     20  H   ASN A  10     -12.566  22.603  17.209  0.00  0.00    +0.150 HD
BRANCH  19  21
ATOM     21  CA  ASN A  10     -13.205  23.651  15.419  0.00  0.00    +0.146 C 
BRANCH  21  22
ATOM     22  C   ASN A  10     -14.658  23.888  15.072  0.00  0.00    +0.227 C 
ATOM     23  O   ASN A  10     -14.952  24.441  14.018  0.00  0.00    -0.286 OA
ENDBRANCH  21  22
BRANCH  21  24
ATOM     24  CB  ASN A  10     -12.710  22.422  14.668  0.00  0.00    +0.112 C 
BRANCH  24  25
ATOM     25  CG  ASN A  10     -13.523  21.192  14.844  0.00  0.00    +0.222 C 
ATOM     26  OD1 ASN A  10     -13.718  20.893  16.016  0.00  0.00    -0.275 OA
ATOM     27  ND2 ASN A  10     -13.942  20.491  13.804  0.00  0.00    -0.329 N 
ATOM     28 HD21 ASN A  10     -14.481  19.614  13.951  0.00  0.00    +0.145 HD
ATOM     29 HD22 ASN A  10     -13.733  20.817  12.839  0.00  0.00    +0.145 HD
ENDBRANCH  24  25
ENDBRANCH  21  24
ENDBRANCH  19  21
ENDBRANCH  16  17
BRANCH  16  30
ATOM     30  CB  ARG A   9     -11.610  25.141  19.470  0.00  0.00    +0.033 C 
BRANCH  30  31
ATOM     31  CG  ARG A   9     -11.211  25.127  20.934  0.00  0.00    +0.045 C 
BRANCH  31  32
ATOM     32  CD  ARG A   9     -10.091  26.158  21.177  0.00  0.00    +0.174 C 
BRANCH  32  33
ATOM     33  NE  ARG A   9      -8.765  25.689  20.763  0.00  0.00    -0.265 N 
ATOM     34  HE  ARG A   9      -8.210  25.118  21.432  0.00  0.00    +0.259 HD
ATOM     35  CZ  ARG A   9      -8.242  25.958  19.578  0.00  0.00    +0.342 C 
ATOM     36  NH2 ARG A   9      -7.187  25.282  19.166  0.00  0.00    -0.292 N 
ATOM     37 HH21 ARG A   9      -6.773  24.544  19.771  0.00  0.00    +0.255 HD
ATOM     38 HH22 ARG A   9      -6.769  25.487  18.236  0.00  0.00    +0.255 HD
ATOM     39  NH1 ARG A   9      -8.842  26.899  18.848  0.00  0.00    -0.292 N 
ATOM     40 HH11 ARG A   9      -9.684  27.386  19.217  0.00  0.00    +0.255 HD
ATOM     41 HH12 ARG A   9      -8.468  27.146  17.909  0.00  0.00    +0.255 HD
ENDBRANCH  32  33
ENDBRANCH  31  32
ENDBRANCH  30  31
ENDBRANCH  16  30
ENDBRANCH  13  16
ENDBRANCH  11  12
ENDBRANCH   9  11
ENDBRANCH   6   7
BRANCH   6  42
ATOM     42  CB  ILE A   7     -18.761  20.131  20.694  0.00  0.00    +0.027 C 
ATOM     43  CG2 ILE A   7     -18.741  21.169  19.564  0.00  0.00    +0.002 C 
BRANCH  42  44
ATOM     44  CG1 ILE A   7     -20.127  19.494  20.648  0.00  0.00    +0.002 C 
ATOM     45  CD1 ILE A   7     -20.337  18.570  19.454  0.00  0.00    +0.000 C 
ENDBRANCH  42  44
ENDBRANCH   6  42
ENDBRANCH   3   6
ENDBRANCH   1   2
BRANCH   1  48
ATOM     46  C   ASN A   5     -18.256  14.248  23.100  0.00  0.00    +0.241 C 
ATOM     47  O   ASN A   5     -18.776  14.711  24.118  0.00  0.00    -0.273 OA
ATOM     48  N   ILE A   6     -17.334  14.857  22.390  0.00  0.00    -0.297 N 
ATOM     49  H   ILE A   6     -16.998  14.367  21.537  0.00  0.00    +0.150 HD
BRANCH  46  50
ATOM     50  CA  ASN A   5     -18.731  12.850  22.699  0.00  0.00    +0.158 C 
BRANCH  50  53
ATOM     51  C   VAL A   4     -17.578  11.712  24.556  0.00  0.00    +0.241 C 
ATOM     52  O   VAL A   4     -16.476  11.830  24.077  0.00  0.00    -0.273 OA
ATOM     53  N   ASN A   5     -18.653  12.158  23.967  0.00  0.00    -0.297 N 
ATOM     54  H   ASN A   5     -19.553  11.999  24.463  0.00  0.00    +0.150 HD
BRANCH  51  55
ATOM     55  CA  VAL A   4     -17.732  10.998  25.891  0.00  0.00    +0.149 C 
BRANCH  55  58
ATOM     56  C   PRO A   3     -16.651   8.852  26.454  0.00  0.00    +0.241 C 
ATOM     57  O   PRO A   3     -17.772   8.402  26.719  0.00  0.00    -0.273 OA
ATOM     58  N   VAL A   4     -16.580  10.135  26.095  0.00  0.00    -0.297 N 
ATOM     59  H   VAL A   4     -15.636  10.546  25.951  0.00  0.00    +0.150 HD
BRANCH  56  62
ATOM     60  C   THR A   2     -14.487   8.088  24.287  0.00  0.00    +0.246 C 
ATOM     61  N   PRO A   3     -14.348   8.377  25.576  0.00  0.00    -0.272 N 
ATOM     62  CA  PRO A   3     -15.361   8.048  26.578  0.00  0.00    +0.152 C 
ATOM     63  CB  PRO A   3     -14.573   8.331  27.876  0.00  0.00    +0.031 C 
ATOM     64  CG  PRO A   3     -13.652   9.466  27.576  0.00  0.00    +0.024 C 
ATOM     65  CD  PRO A   3     -13.375   9.374  26.112  0.00  0.00    +0.094 C 
ATOM     66  O   THR A   2     -15.440   7.459  23.858  0.00  0.00    -0.273 OA
BRANCH  60  67
ATOM     67  CA  THR A   2     -13.400   8.572  23.333  0.00  0.00    +0.176 C 
BRANCH  67  70
ATOM     68  C   PRO A   1     -12.584   6.391  22.465  0.00  0.00    +0.239 C 
ATOM     69  O   PRO A   1     -12.027   6.137  23.543  0.00  0.00    -0.274 OA
ATOM     70  N   THR A   2     -13.208   7.553  22.341  0.00  0.00    -0.295 N 
ATOM     71  H   THR A   2     -13.611   7.753  21.403  0.00  0.00    +0.150 HD
BRANCH  68  73
ATOM     72  N   PRO A   1     -12.448   5.953  19.915  0.00  0.00    -0.210 NA
ATOM     73  CA  PRO A   1     -12.561   5.426  21.278  0.00  0.00    +0.149 C 
ATOM     74  CB  PRO A   1     -11.318   4.525  21.401  0.00  0.00    +0.028 C 
ATOM     75  CG  PRO A   1     -10.553   4.604  20.145  0.00  0.00    +0.021 C 
ATOM     76  CD  PRO A   1     -11.441   5.216  19.126  0.00  0.00    +0.089 C 
ENDBRANCH  68  73
ENDBRANCH  67  70
BRANCH  67  77
ATOM     77  CB  THR A   2     -13.858   9.871  22.652  0.00  0.00    +0.137 C 
ATOM     78  CG2 THR A   2     -15.223   9.740  22.005  0.00  0.00    +0.034 C 
BRANCH  77  79
ATOM     79  OG1 THR A   2     -13.962  10.907  23.629  0.00  0.00    -0.382 OA
ATOM     80  HG1 THR A   2     -14.622  10.644  24.318  0.00  0.00    +0.210 HD
ENDBRANCH  77  79
ENDBRANCH  67  77
ENDBRANCH  60  67
ENDBRANCH  56  62
ENDBRANCH  55  58
BRANCH  55  81
ATOM     81  CB  VAL A   4     -18.012  12.064  26.960  0.00  0.00    +0.027 C 
ATOM     82  CG2 VAL A   4     -17.541  11.609  28.342  0.00  0.00    +0.002 C 
ATOM     83  CG1 VAL A   4     -17.263  13.348  26.718  0.00  0.00    +0.002 C 
ENDBRANCH  55  81
ENDBRANCH  51  55
ENDBRANCH  50  53
BRANCH  50  84
ATOM     84  CB  ASN A   5     -20.171  12.971  22.219  0.00  0.00    +0.114 C 
BRANCH  84  85
ATOM     85  CG  ASN A   5     -20.909  11.710  21.829  0.00  0.00    +0.222 C 
ATOM     86  ND2 ASN A   5     -22.161  11.488  22.156  0.00  0.00    -0.329 N 
ATOM     87 HD21 ASN A   5     -22.674  12.175  22.745  0.00  0.00    +0.145 HD
ATOM     88 HD22 ASN A   5     -22.639  10.625  21.826  0.00  0.00    +0.145 HD
ATOM     89  OD1 ASN A   5     -20.305  10.898  21.134  0.00  0.00    -0.275 OA
ENDBRANCH  84  85
ENDBRANCH  50  84
ENDBRANCH  46  50
ENDBRANCH   1  48
BRANCH   1  90
ATOM     90  CB  ILE A   6     -15.219  16.020  22.906  0.00  0.00    +0.027 C 
ATOM     91  CG2 ILE A   6     -14.456  17.360  22.913  0.00  0.00    +0.002 C 
BRANCH  90  92
ATOM     92  CG1 ILE A   6     -14.844  15.362  24.235  0.00  0.00    +0.002 C 
ATOM     93  CD1 ILE A   6     -13.411  14.840  23.973  0.00  0.00    +0.000 C 
ENDBRANCH  90  92
ENDBRANCH   1  90
TORSDOF 33
REMARK  Name = ../refined-set-2016/1gno/1gno_pocket.pdb
REMARK  206 active torsions:
REMARK  status: ('A' for Active; 'I' for Inactive)
REMARK    1  A    between atoms: _1  and  _3
REMARK    2  A    between atoms: _3  and  _4
REMARK    3  A    between atoms: _3  and  _6
REMARK    4  A    between atoms: _6  and  _7
REMARK    5  A    between atoms: _7  and  _8
REMARK    6  A    between atoms: _8  and  _9
REMARK    7  A    between atoms: _18  and  _20
REMARK    8  A    between atoms: _20  and  _21
REMARK    9  A    between atoms: _20  and  _23
REMARK   10  A    between atoms: _23  and  _24
REMARK   11  A    between atoms: _27  and  _29
REMARK   12  A    between atoms: _29  and  _30
REMARK   13  A    between atoms: _29  and  _32
REMARK   14  A    between atoms: _32  and  _33
REMARK   15  A    between atoms: _36  and  _38
REMARK   16  A    between atoms: _38  and  _39
REMARK   17  A    between atoms: _38  and  _41
REMARK   18  A    between atoms: _41  and  _42
REMARK   19  A    between atoms: _45  and  _47
REMARK   20  A    between atoms: _47  and  _48
REMARK   21  A    between atoms: _47  and  _50
REMARK   22  A    between atoms: _50  and  _51
REMARK   23  A    between atoms: _54  and  _56
REMARK   24  A    between atoms: _56  and  _57
REMARK   25  A    between atoms: _59  and  _61
REMARK   26  A    between atoms: _61  and  _62
REMARK   27  A    between atoms: _65  and  _67
REMARK   28  A    between atoms: _67  and  _68
REMARK   29  A    between atoms: _67  and  _70
REMARK   30  A    between atoms: _70  and  _71
REMARK   31  A    between atoms: _74  and  _76
REMARK   32  A    between atoms: _76  and  _77
REMARK   33  A    between atoms: _76  and  _79
REMARK   34  A    between atoms: _79  and  _80
REMARK   35  A    between atoms: _83  and  _85
REMARK   36  A    between atoms: _85  and  _86
REMARK   37  A    between atoms: _85  and  _88
REMARK   38  A    between atoms: _88  and  _89
REMARK   39  A    between atoms: _92  and  _94
REMARK   40  A    between atoms: _94  and  _95
REMARK   41  A    between atoms: _94  and  _97
REMARK   42  A    between atoms: _100  and  _102
REMARK   43  A    between atoms: _102  and  _103
REMARK   44  A    between atoms: _102  and  _105
REMARK   45  A    between atoms: _105  and  _106
REMARK   46  A    between atoms: _109  and  _111
REMARK   47  A    between atoms: _111  and  _112
REMARK   48  A    between atoms: _114  and  _116
REMARK   49  A    between atoms: _116  and  _117
REMARK   50  A    between atoms: _119  and  _121
REMARK   51  A    between atoms: _121  and  _122
REMARK   52  A    between atoms: _121  and  _124
REMARK   53  A    between atoms: _124  and  _125
REMARK   54  A    between atoms: _128  and  _130
REMARK   55  A    between atoms: _130  and  _131
REMARK   56  A    between atoms: _133  and  _135
REMARK   57  A    between atoms: _135  and  _136
REMARK   58  A    between atoms: _138  and  _140
REMARK   59  A    between atoms: _140  and  _141
REMARK   60  A    between atoms: _140  and  _143
REMARK   61  A    between atoms: _143  and  _144
REMARK   62  A    between atoms: _147  and  _149
REMARK   63  A    between atoms: _149  and  _150
REMARK   64  A    between atoms: _149  and  _152
REMARK   65  A    between atoms: _152  and  _153
REMARK   66  A    between atoms: _157  and  _158
REMARK   67  A    between atoms: _163  and  _165
REMARK   68  A    between atoms: _165  and  _166
REMARK   69  A    between atoms: _165  and  _168
REMARK   70  A    between atoms: _171  and  _173
REMARK   71  A    between atoms: _173  and  _174
REMARK   72  A    between atoms: _173  and  _176
REMARK   73  A    between atoms: _176  and  _177
REMARK   74  A    between atoms: _182  and  _184
REMARK   75  A    between atoms: _184  and  _185
REMARK   76  A    between atoms: _184  and  _187
REMARK   77  A    between atoms: _187  and  _188
REMARK   78  A    between atoms: _191  and  _193
REMARK   79  A    between atoms: _193  and  _194
REMARK   80  A    between atoms: _193  and  _196
REMARK   81  A    between atoms: _196  and  _197
REMARK   82  A    between atoms: _200  and  _202
REMARK   83  A    between atoms: _202  and  _203
REMARK   84  A    between atoms: _205  and  _207
REMARK   85  A    between atoms: _207  and  _208
REMARK   86  A    between atoms: _207  and  _210
REMARK   87  A    between atoms: _210  and  _211
REMARK   88  A    between atoms: _211  and  _212
REMARK   89  A    between atoms: _212  and  _213
REMARK   90  A    between atoms: _222  and  _224
REMARK   91  A    between atoms: _224  and  _225
REMARK   92  A    between atoms: _224  and  _227
REMARK   93  A    between atoms: _227  and  _228
REMARK   94  A    between atoms: _228  and  _229
REMARK   95  A    between atoms: _229  and  _230
REMARK   96  A    between atoms: _239  and  _241
REMARK   97  A    between atoms: _241  and  _242
REMARK   98  A    between atoms: _241  and  _244
REMARK   99  A    between atoms: _244  and  _245
REMARK  100  A    between atoms: _248  and  _250
REMARK  101  A    between atoms: _250  and  _251
REMARK  102  A    between atoms: _250  and  _253
REMARK  103  A    between atoms: _253  and  _254
REMARK  104  A    between atoms: _257  and  _259
REMARK  105  A    between atoms: _259  and  _260
REMARK  106  A    between atoms: _259  and  _262
REMARK  107  A    between atoms: _262  and  _263
REMARK  108  A    between atoms: _266  and  _268
REMARK  109  A    between atoms: _268  and  _269
REMARK  110  A    between atoms: _268  and  _271
REMARK  111  A    between atoms: _271  and  _272
REMARK  112  A    between atoms: _275  and  _277
REMARK  113  A    between atoms: _277  and  _278
REMARK  114  A    between atoms: _280  and  _282
REMARK  115  A    between atoms: _282  and  _283
REMARK  116  A    between atoms: _286  and  _288
REMARK  117  A    between atoms: _288  and  _289
REMARK  118  A    between atoms: _288  and  _291
REMARK  119  A    between atoms: _291  and  _292
REMARK  120  A    between atoms: _295  and  _297
REMARK  121  A    between atoms: _297  and  _298
REMARK  122  A    between atoms: _297  and  _300
REMARK  123  A    between atoms: _300  and  _301
REMARK  124  A    between atoms: _304  and  _306
REMARK  125  A    between atoms: _306  and  _307
REMARK  126  A    between atoms: _306  and  _309
REMARK  127  A    between atoms: _309  and  _310
REMARK  128  A    between atoms: _313  and  _315
REMARK  129  A    between atoms: _315  and  _316
REMARK  130  A    between atoms: _315  and  _318
REMARK  131  A    between atoms: _321  and  _323
REMARK  132  A    between atoms: _323  and  _324
REMARK  133  A    between atoms: _323  and  _326
REMARK  134  A    between atoms: _326  and  _327
REMARK  135  A    between atoms: _327  and  _328
REMARK  136  A    between atoms: _328  and  _329
REMARK  137  A    between atoms: _329  and  _330
REMARK  138  A    between atoms: _334  and  _336
REMARK  139  A    between atoms: _336  and  _337
REMARK  140  A    between atoms: _336  and  _339
REMARK  141  A    between atoms: _339  and  _340
REMARK  142  A    between atoms: _340  and  _341
REMARK  143  A    between atoms: _343  and  _345
REMARK  144  A    between atoms: _345  and  _346
REMARK  145  A    between atoms: _345  and  _348
REMARK  146  A    between atoms: _348  and  _349
REMARK  147  A    between atoms: _352  and  _354
REMARK  148  A    between atoms: _354  and  _355
REMARK  149  A    between atoms: _357  and  _359
REMARK  150  A    between atoms: _359  and  _360
REMARK  151  A    between atoms: _362  and  _364
REMARK  152  A    between atoms: _364  and  _365
REMARK  153  A    between atoms: _364  and  _367
REMARK  154  A    between atoms: _367  and  _368
REMARK  155  A    between atoms: _371  and  _373
REMARK  156  A    between atoms: _373  and  _374
REMARK  157  A    between atoms: _376  and  _378
REMARK  158  A    between atoms: _378  and  _379
REMARK  159  A    between atoms: _381  and  _383
REMARK  160  A    between atoms: _383  and  _384
REMARK  161  A    between atoms: _383  and  _386
REMARK  162  A    between atoms: _386  and  _387
REMARK  163  A    between atoms: _393  and  _395
REMARK  164  A    between atoms: _395  and  _396
REMARK  165  A    between atoms: _395  and  _398
REMARK  166  A    between atoms: _398  and  _399
REMARK  167  A    between atoms: _402  and  _404
REMARK  168  A    between atoms: _404  and  _405
REMARK  169  A    between atoms: _404  and  _407
REMARK  170  A    between atoms: _410  and  _412
REMARK  171  A    between atoms: _412  and  _413
REMARK  172  A    between atoms: _412  and  _415
REMARK  173  A    between atoms: _415  and  _416
REMARK  174  A    between atoms: _420  and  _421
REMARK  175  A    between atoms: _426  and  _428
REMARK  176  A    between atoms: _428  and  _429
REMARK  177  A    between atoms: _428  and  _431
REMARK  178  A    between atoms: _431  and  _432
REMARK  179  A    between atoms: _436  and  _437
REMARK  180  A    between atoms: _442  and  _444
REMARK  181  A    between atoms: _444  and  _445
REMARK  182  A    between atoms: _444  and  _447
REMARK  183  A    between atoms: _450  and  _452
REMARK  184  A    between atoms: _452  and  _453
REMARK  185  A    between atoms: _452  and  _455
REMARK  186  A    between atoms: _455  and  _456
REMARK  187  A    between atoms: _461  and  _463
REMARK  188  A    between atoms: _463  and  _464
REMARK  189  A    between atoms: _463  and  _466
REMARK  190  A    between atoms: _466  and  _467
REMARK  191  A    between atoms: _470  and  _472
REMARK  192  A    between atoms: _472  and  _473
REMARK  193  A    between atoms: _472  and  _475
REMARK  194  A    between atoms: _475  and  _476
REMARK  195  A    between atoms: _479  and  _481
REMARK  196  A    between atoms: _481  and  _482
REMARK  197  A    between atoms: _484  and  _486
REMARK  198  A    between atoms: _486  and  _487
REMARK  199  A    between atoms: _486  and  _489
REMARK  200  A    between atoms: _489  and  _490
REMARK  201  A    between atoms: _490  and  _491
REMARK  202  A    between atoms: _491  and  _492
REMARK  203  A    between atoms: _501  and  _503
REMARK  204  A    between atoms: _503  and  _504
REMARK  205  A    between atoms: _503  and  _506
REMARK  206  A    between atoms: _506  and  _507
REMARK                            x       y       z     vdW  Elec       q    Type
REMARK                         _______ _______ _______ _____ _____    ______ ____
ROOT
ATOM      1  O   HOH     1     -17.039  19.242  32.637  0.00  0.00    +0.000 OA
ENDROOT
TORSDOF 0
REMARK  Name = ../refined-set-2016/1gno/1gno_pocket.pdb
REMARK  206 active torsions:
REMARK  status: ('A' for Active; 'I' for Inactive)
REMARK    1  A    between atoms: _1  and  _3
REMARK    2  A    between atoms: _3  and  _4
REMARK    3  A    between atoms: _3  and  _6
REMARK    4  A    between atoms: _6  and  _7
REMARK    5  A    between atoms: _7  and  _8
REMARK    6  A    between atoms: _8  and  _9
REMARK    7  A    between atoms: _18  and  _20
REMARK    8  A    between atoms: _20  and  _21
REMARK    9  A    between atoms: _20  and  _23
REMARK   10  A    between atoms: _23  and  _24
REMARK   11  A    between atoms: _27  and  _29
REMARK   12  A    between atoms: _29  and  _30
REMARK   13  A    between atoms: _29  and  _32
REMARK   14  A    between atoms: _32  and  _33
REMARK   15  A    between atoms: _36  and  _38
REMARK   16  A    between atoms: _38  and  _39
REMARK   17  A    between atoms: _38  and  _41
REMARK   18  A    between atoms: _41  and  _42
REMARK   19  A    between atoms: _45  and  _47
REMARK   20  A    between atoms: _47  and  _48
REMARK   21  A    between atoms: _47  and  _50
REMARK   22  A    between atoms: _50  and  _51
REMARK   23  A    between atoms: _54  and  _56
REMARK   24  A    between atoms: _56  and  _57
REMARK   25  A    between atoms: _59  and  _61
REMARK   26  A    between atoms: _61  and  _62
REMARK   27  A    between atoms: _65  and  _67
REMARK   28  A    between atoms: _67  and  _68
REMARK   29  A    between atoms: _67  and  _70
REMARK   30  A    between atoms: _70  and  _71
REMARK   31  A    between atoms: _74  and  _76
REMARK   32  A    between atoms: _76  and  _77
REMARK   33  A    between atoms: _76  and  _79
REMARK   34  A    between atoms: _79  and  _80
REMARK   35  A    between atoms: _83  and  _85
REMARK   36  A    between atoms: _85  and  _86
REMARK   37  A    between atoms: _85  and  _88
REMARK   38  A    between atoms: _88  and  _89
REMARK   39  A    between atoms: _92  and  _94
REMARK   40  A    between atoms: _94  and  _95
REMARK   41  A    between atoms: _94  and  _97
REMARK   42  A    between atoms: _100  and  _102
REMARK   43  A    between atoms: _102  and  _103
REMARK   44  A    between atoms: _102  and  _105
REMARK   45  A    between atoms: _105  and  _106
REMARK   46  A    between atoms: _109  and  _111
REMARK   47  A    between atoms: _111  and  _112
REMARK   48  A    between atoms: _114  and  _116
REMARK   49  A    between atoms: _116  and  _117
REMARK   50  A    between atoms: _119  and  _121
REMARK   51  A    between atoms: _121  and  _122
REMARK   52  A    between atoms: _121  and  _124
REMARK   53  A    between atoms: _124  and  _125
REMARK   54  A    between atoms: _128  and  _130
REMARK   55  A    between atoms: _130  and  _131
REMARK   56  A    between atoms: _133  and  _135
REMARK   57  A    between atoms: _135  and  _136
REMARK   58  A    between atoms: _138  and  _140
REMARK   59  A    between atoms: _140  and  _141
REMARK   60  A    between atoms: _140  and  _143
REMARK   61  A    between atoms: _143  and  _144
REMARK   62  A    between atoms: _147  and  _149
REMARK   63  A    between atoms: _149  and  _150
REMARK   64  A    between atoms: _149  and  _152
REMARK   65  A    between atoms: _152  and  _153
REMARK   66  A    between atoms: _157  and  _158
REMARK   67  A    between atoms: _163  and  _165
REMARK   68  A    between atoms: _165  and  _166
REMARK   69  A    between atoms: _165  and  _168
REMARK   70  A    between atoms: _171  and  _173
REMARK   71  A    between atoms: _173  and  _174
REMARK   72  A    between atoms: _173  and  _176
REMARK   73  A    between atoms: _176  and  _177
REMARK   74  A    between atoms: _182  and  _184
REMARK   75  A    between atoms: _184  and  _185
REMARK   76  A    between atoms: _184  and  _187
REMARK   77  A    between atoms: _187  and  _188
REMARK   78  A    between atoms: _191  and  _193
REMARK   79  A    between atoms: _193  and  _194
REMARK   80  A    between atoms: _193  and  _196
REMARK   81  A    between atoms: _196  and  _197
REMARK   82  A    between atoms: _200  and  _202
REMARK   83  A    between atoms: _202  and  _203
REMARK   84  A    between atoms: _205  and  _207
REMARK   85  A    between atoms: _207  and  _208
REMARK   86  A    between atoms: _207  and  _210
REMARK   87  A    between atoms: _210  and  _211
REMARK   88  A    between atoms: _211  and  _212
REMARK   89  A    between atoms: _212  and  _213
REMARK   90  A    between atoms: _222  and  _224
REMARK   91  A    between atoms: _224  and  _225
REMARK   92  A    between atoms: _224  and  _227
REMARK   93  A    between atoms: _227  and  _228
REMARK   94  A    between atoms: _228  and  _229
REMARK   95  A    between atoms: _229  and  _230
REMARK   96  A    between atoms: _239  and  _241
REMARK   97  A    between atoms: _241  and  _242
REMARK   98  A    between atoms: _241  and  _244
REMARK   99  A    between atoms: _244  and  _245
REMARK  100  A    between atoms: _248  and  _250
REMARK  101  A    between atoms: _250  and  _251
REMARK  102  A    between atoms: _250  and  _253
REMARK  103  A    between atoms: _253  and  _254
REMARK  104  A    between atoms: _257  and  _259
REMARK  105  A    between atoms: _259  and  _260
REMARK  106  A    between atoms: _259  and  _262
REMARK  107  A    between atoms: _262  and  _263
REMARK  108  A    between atoms: _266  and  _268
REMARK  109  A    between atoms: _268  and  _269
REMARK  110  A    between atoms: _268  and  _271
REMARK  111  A    between atoms: _271  and  _272
REMARK  112  A    between atoms: _275  and  _277
REMARK  113  A    between atoms: _277  and  _278
REMARK  114  A    between atoms: _280  and  _282
REMARK  115  A    between atoms: _282  and  _283
REMARK  116  A    between atoms: _286  and  _288
REMARK  117  A    between atoms: _288  and  _289
REMARK  118  A    between atoms: _288  and  _291
REMARK  119  A    between atoms: _291  and  _292
REMARK  120  A    between atoms: _295  and  _297
REMARK  121  A    between atoms: _297  and  _298
REMARK  122  A    between atoms: _297  and  _300
REMARK  123  A    between atoms: _300  and  _301
REMARK  124  A    between atoms: _304  and  _306
REMARK  125  A    between atoms: _306  and  _307
REMARK  126  A    between atoms: _306  and  _309
REMARK  127  A    between atoms: _309  and  _310
REMARK  128  A    between atoms: _313  and  _315
REMARK  129  A    between atoms: _315  and  _316
REMARK  130  A    between atoms: _315  and  _318
REMARK  131  A    between atoms: _321  and  _323
REMARK  132  A    between atoms: _323  and  _324
REMARK  133  A    between atoms: _323  and  _326
REMARK  134  A    between atoms: _326  and  _327
REMARK  135  A    between atoms: _327  and  _328
REMARK  136  A    between atoms: _328  and  _329
REMARK  137  A    between atoms: _329  and  _330
REMARK  138  A    between atoms: _334  and  _336
REMARK  139  A    between atoms: _336  and  _337
REMARK  140  A    between atoms: _336  and  _339
REMARK  141  A    between atoms: _339  and  _340
REMARK  142  A    between atoms: _340  and  _341
REMARK  143  A    between atoms: _343  and  _345
REMARK  144  A    between atoms: _345  and  _346
REMARK  145  A    between atoms: _345  and  _348
REMARK  146  A    between atoms: _348  and  _349
REMARK  147  A    between atoms: _352  and  _354
REMARK  148  A    between atoms: _354  and  _355
REMARK  149  A    between atoms: _357  and  _359
REMARK  150  A    between atoms: _359  and  _360
REMARK  151  A    between atoms: _362  and  _364
REMARK  152  A    between atoms: _364  and  _365
REMARK  153  A    between atoms: _364  and  _367
REMARK  154  A    between atoms: _367  and  _368
REMARK  155  A    between atoms: _371  and  _373
REMARK  156  A    between atoms: _373  and  _374
REMARK  157  A    between atoms: _376  and  _378
REMARK  158  A    between atoms: _378  and  _379
REMARK  159  A    between atoms: _381  and  _383
REMARK  160  A    between atoms: _383  and  _384
REMARK  161  A    between atoms: _383  and  _386
REMARK  162  A    between atoms: _386  and  _387
REMARK  163  A    between atoms: _393  and  _395
REMARK  164  A    between atoms: _395  and  _396
REMARK  165  A    between atoms: _395  and  _398
REMARK  166  A    between atoms: _398  and  _399
REMARK  167  A    between atoms: _402  and  _404
REMARK  168  A    between atoms: _404  and  _405
REMARK  169  A    between atoms: _404  and  _407
REMARK  170  A    between atoms: _410  and  _412
REMARK  171  A    between atoms: _412  and  _413
REMARK  172  A    between atoms: _412  and  _415
REMARK  173  A    between atoms: _415  and  _416
REMARK  174  A    between atoms: _420  and  _421
REMARK  175  A    between atoms: _426  and  _428
REMARK  176  A    between atoms: _428  and  _429
REMARK  177  A    between atoms: _428  and  _431
REMARK  178  A    between atoms: _431  and  _432
REMARK  179  A    between atoms: _436  and  _437
REMARK  180  A    between atoms: _442  and  _444
REMARK  181  A    between atoms: _444  and  _445
REMARK  182  A    between atoms: _444  and  _447
REMARK  183  A    between atoms: _450  and  _452
REMARK  184  A    between atoms: _452  and  _453
REMARK  185  A    between atoms: _452  and  _455
REMARK  186  A    between atoms: _455  and  _456
REMARK  187  A    between atoms: _461  and  _463
REMARK  188  A    between atoms: _463  and  _464
REMARK  189  A    between atoms: _463  and  _466
REMARK  190  A    between atoms: _466  and  _467
REMARK  191  A    between atoms: _470  and  _472
REMARK  192  A    between atoms: _472  and  _473
REMARK  193  A    between atoms: _472  and  _475
REMARK  194  A    between atoms: _475  and  _476
REMARK  195  A    between atoms: _479  and  _481
REMARK  196  A    between atoms: _481  and  _482
REMARK  197  A    between atoms: _484  and  _486
REMARK  198  A    between atoms: _486  and  _487
REMARK  199  A    between atoms: _486  and  _489
REMARK  200  A    between atoms: _489  and  _490
REMARK  201  A    between atoms: _490  and  _491
REMARK  202  A    between atoms: _491  and  _492
REMARK  203  A    between atoms: _501  and  _503
REMARK  204  A    between atoms: _503  and  _504
REMARK  205  A    between atoms: _503  and  _506
REMARK  206  A    between atoms: _506  and  _507
REMARK                            x       y       z     vdW  Elec       q    Type
REMARK                         _______ _______ _______ _____ _____    ______ ____
ROOT
ATOM      1  O   HOH     1     -15.842  16.233  32.318  0.00  0.00    +0.000 OA
ENDROOT
TORSDOF 0
REMARK  Name = ../refined-set-2016/1gno/1gno_pocket.pdb
REMARK  206 active torsions:
REMARK  status: ('A' for Active; 'I' for Inactive)
REMARK    1  A    between atoms: _1  and  _3
REMARK    2  A    between atoms: _3  and  _4
REMARK    3  A    between atoms: _3  and  _6
REMARK    4  A    between atoms: _6  and  _7
REMARK    5  A    between atoms: _7  and  _8
REMARK    6  A    between atoms: _8  and  _9
REMARK    7  A    between atoms: _18  and  _20
REMARK    8  A    between atoms: _20  and  _21
REMARK    9  A    between atoms: _20  and  _23
REMARK   10  A    between atoms: _23  and  _24
REMARK   11  A    between atoms: _27  and  _29
REMARK   12  A    between atoms: _29  and  _30
REMARK   13  A    between atoms: _29  and  _32
REMARK   14  A    between atoms: _32  and  _33
REMARK   15  A    between atoms: _36  and  _38
REMARK   16  A    between atoms: _38  and  _39
REMARK   17  A    between atoms: _38  and  _41
REMARK   18  A    between atoms: _41  and  _42
REMARK   19  A    between atoms: _45  and  _47
REMARK   20  A    between atoms: _47  and  _48
REMARK   21  A    between atoms: _47  and  _50
REMARK   22  A    between atoms: _50  and  _51
REMARK   23  A    between atoms: _54  and  _56
REMARK   24  A    between atoms: _56  and  _57
REMARK   25  A    between atoms: _59  and  _61
REMARK   26  A    between atoms: _61  and  _62
REMARK   27  A    between atoms: _65  and  _67
REMARK   28  A    between atoms: _67  and  _68
REMARK   29  A    between atoms: _67  and  _70
REMARK   30  A    between atoms: _70  and  _71
REMARK   31  A    between atoms: _74  and  _76
REMARK   32  A    between atoms: _76  and  _77
REMARK   33  A    between atoms: _76  and  _79
REMARK   34  A    between atoms: _79  and  _80
REMARK   35  A    between atoms: _83  and  _85
REMARK   36  A    between atoms: _85  and  _86
REMARK   37  A    between atoms: _85  and  _88
REMARK   38  A    between atoms: _88  and  _89
REMARK   39  A    between atoms: _92  and  _94
REMARK   40  A    between atoms: _94  and  _95
REMARK   41  A    between atoms: _94  and  _97
REMARK   42  A    between atoms: _100  and  _102
REMARK   43  A    between atoms: _102  and  _103
REMARK   44  A    between atoms: _102  and  _105
REMARK   45  A    between atoms: _105  and  _106
REMARK   46  A    between atoms: _109  and  _111
REMARK   47  A    between atoms: _111  and  _112
REMARK   48  A    between atoms: _114  and  _116
REMARK   49  A    between atoms: _116  and  _117
REMARK   50  A    between atoms: _119  and  _121
REMARK   51  A    between atoms: _121  and  _122
REMARK   52  A    between atoms: _121  and  _124
REMARK   53  A    between atoms: _124  and  _125
REMARK   54  A    between atoms: _128  and  _130
REMARK   55  A    between atoms: _130  and  _131
REMARK   56  A    between atoms: _133  and  _135
REMARK   57  A    between atoms: _135  and  _136
REMARK   58  A    between atoms: _138  and  _140
REMARK   59  A    between atoms: _140  and  _141
REMARK   60  A    between atoms: _140  and  _143
REMARK   61  A    between atoms: _143  and  _144
REMARK   62  A    between atoms: _147  and  _149
REMARK   63  A    between atoms: _149  and  _150
REMARK   64  A    between atoms: _149  and  _152
REMARK   65  A    between atoms: _152  and  _153
REMARK   66  A    between atoms: _157  and  _158
REMARK   67  A    between atoms: _163  and  _165
REMARK   68  A    between atoms: _165  and  _166
REMARK   69  A    between atoms: _165  and  _168
REMARK   70  A    between atoms: _171  and  _173
REMARK   71  A    between atoms: _173  and  _174
REMARK   72  A    between atoms: _173  and  _176
REMARK   73  A    between atoms: _176  and  _177
REMARK   74  A    between atoms: _182  and  _184
REMARK   75  A    between atoms: _184  and  _185
REMARK   76  A    between atoms: _184  and  _187
REMARK   77  A    between atoms: _187  and  _188
REMARK   78  A    between atoms: _191  and  _193
REMARK   79  A    between atoms: _193  and  _194
REMARK   80  A    between atoms: _193  and  _196
REMARK   81  A    between atoms: _196  and  _197
REMARK   82  A    between atoms: _200  and  _202
REMARK   83  A    between atoms: _202  and  _203
REMARK   84  A    between atoms: _205  and  _207
REMARK   85  A    between atoms: _207  and  _208
REMARK   86  A    between atoms: _207  and  _210
REMARK   87  A    between atoms: _210  and  _211
REMARK   88  A    between atoms: _211  and  _212
REMARK   89  A    between atoms: _212  and  _213
REMARK   90  A    between atoms: _222  and  _224
REMARK   91  A    between atoms: _224  and  _225
REMARK   92  A    between atoms: _224  and  _227
REMARK   93  A    between atoms: _227  and  _228
REMARK   94  A    between atoms: _228  and  _229
REMARK   95  A    between atoms: _229  and  _230
REMARK   96  A    between atoms: _239  and  _241
REMARK   97  A    between atoms: _241  and  _242
REMARK   98  A    between atoms: _241  and  _244
REMARK   99  A    between atoms: _244  and  _245
REMARK  100  A    between atoms: _248  and  _250
REMARK  101  A    between atoms: _250  and  _251
REMARK  102  A    between atoms: _250  and  _253
REMARK  103  A    between atoms: _253  and  _254
REMARK  104  A    between atoms: _257  and  _259
REMARK  105  A    between atoms: _259  and  _260
REMARK  106  A    between atoms: _259  and  _262
REMARK  107  A    between atoms: _262  and  _263
REMARK  108  A    between atoms: _266  and  _268
REMARK  109  A    between atoms: _268  and  _269
REMARK  110  A    between atoms: _268  and  _271
REMARK  111  A    between atoms: _271  and  _272
REMARK  112  A    between atoms: _275  and  _277
REMARK  113  A    between atoms: _277  and  _278
REMARK  114  A    between atoms: _280  and  _282
REMARK  115  A    between atoms: _282  and  _283
REMARK  116  A    between atoms: _286  and  _288
REMARK  117  A    between atoms: _288  and  _289
REMARK  118  A    between atoms: _288  and  _291
REMARK  119  A    between atoms: _291  and  _292
REMARK  120  A    between atoms: _295  and  _297
REMARK  121  A    between atoms: _297  and  _298
REMARK  122  A    between atoms: _297  and  _300
REMARK  123  A    between atoms: _300  and  _301
REMARK  124  A    between atoms: _304  and  _306
REMARK  125  A    between atoms: _306  and  _307
REMARK  126  A    between atoms: _306  and  _309
REMARK  127  A    between atoms: _309  and  _310
REMARK  128  A    between atoms: _313  and  _315
REMARK  129  A    between atoms: _315  and  _316
REMARK  130  A    between atoms: _315  and  _318
REMARK  131  A    between atoms: _321  and  _323
REMARK  132  A    between atoms: _323  and  _324
REMARK  133  A    between atoms: _323  and  _326
REMARK  134  A    between atoms: _326  and  _327
REMARK  135  A    between atoms: _327  and  _328
REMARK  136  A    between atoms: _328  and  _329
REMARK  137  A    between atoms: _329  and  _330
REMARK  138  A    between atoms: _334  and  _336
REMARK  139  A    between atoms: _336  and  _337
REMARK  140  A    between atoms: _336  and  _339
REMARK  141  A    between atoms: _339  and  _340
REMARK  142  A    between atoms: _340  and  _341
REMARK  143  A    between atoms: _343  and  _345
REMARK  144  A    between atoms: _345  and  _346
REMARK  145  A    between atoms: _345  and  _348
REMARK  146  A    between atoms: _348  and  _349
REMARK  147  A    between atoms: _352  and  _354
REMARK  148  A    between atoms: _354  and  _355
REMARK  149  A    between atoms: _357  and  _359
REMARK  150  A    between atoms: _359  and  _360
REMARK  151  A    between atoms: _362  and  _364
REMARK  152  A    between atoms: _364  and  _365
REMARK  153  A    between atoms: _364  and  _367
REMARK  154  A    between atoms: _367  and  _368
REMARK  155  A    between atoms: _371  and  _373
REMARK  156  A    between atoms: _373  and  _374
REMARK  157  A    between atoms: _376  and  _378
REMARK  158  A    between atoms: _378  and  _379
REMARK  159  A    between atoms: _381  and  _383
REMARK  160  A    between atoms: _383  and  _384
REMARK  161  A    between atoms: _383  and  _386
REMARK  162  A    between atoms: _386  and  _387
REMARK  163  A    between atoms: _393  and  _395
REMARK  164  A    between atoms: _395  and  _396
REMARK  165  A    between atoms: _395  and  _398
REMARK  166  A    between atoms: _398  and  _399
REMARK  167  A    between atoms: _402  and  _404
REMARK  168  A    between atoms: _404  and  _405
REMARK  169  A    between atoms: _404  and  _407
REMARK  170  A    between atoms: _410  and  _412
REMARK  171  A    between atoms: _412  and  _413
REMARK  172  A    between atoms: _412  and  _415
REMARK  173  A    between atoms: _415  and  _416
REMARK  174  A    between atoms: _420  and  _421
REMARK  175  A    between atoms: _426  and  _428
REMARK  176  A    between atoms: _428  and  _429
REMARK  177  A    between atoms: _428  and  _431
REMARK  178  A    between atoms: _431  and  _432
REMARK  179  A    between atoms: _436  and  _437
REMARK  180  A    between atoms: _442  and  _444
REMARK  181  A    between atoms: _444  and  _445
REMARK  182  A    between atoms: _444  and  _447
REMARK  183  A    between atoms: _450  and  _452
REMARK  184  A    between atoms: _452  and  _453
REMARK  185  A    between atoms: _452  and  _455
REMARK  186  A    between atoms: _455  and  _456
REMARK  187  A    between atoms: _461  and  _463
REMARK  188  A    between atoms: _463  and  _464
REMARK  189  A    between atoms: _463  and  _466
REMARK  190  A    between atoms: _466  and  _467
REMARK  191  A    between atoms: _470  and  _472
REMARK  192  A    between atoms: _472  and  _473
REMARK  193  A    between atoms: _472  and  _475
REMARK  194  A    between atoms: _475  and  _476
REMARK  195  A    between atoms: _479  and  _481
REMARK  196  A    between atoms: _481  and  _482
REMARK  197  A    between atoms: _484  and  _486
REMARK  198  A    between atoms: _486  and  _487
REMARK  199  A    between atoms: _486  and  _489
REMARK  200  A    between atoms: _489  and  _490
REMARK  201  A    between atoms: _490  and  _491
REMARK  202  A    between atoms: _491  and  _492
REMARK  203  A    between atoms: _501  and  _503
REMARK  204  A    between atoms: _503  and  _504
REMARK  205  A    between atoms: _503  and  _506
REMARK  206  A    between atoms: _506  and  _507
REMARK                            x       y       z     vdW  Elec       q    Type
REMARK                         _______ _______ _______ _____ _____    ______ ____
ROOT
ATOM      1  O   HOH     1      -4.198  19.487  16.988  0.00  0.00    +0.000 OA
ENDROOT
TORSDOF 0
REMARK  Name = ../refined-set-2016/1gno/1gno_pocket.pdb
REMARK  206 active torsions:
REMARK  status: ('A' for Active; 'I' for Inactive)
REMARK    1  A    between atoms: _1  and  _3
REMARK    2  A    between atoms: _3  and  _4
REMARK    3  A    between atoms: _3  and  _6
REMARK    4  A    between atoms: _6  and  _7
REMARK    5  A    between atoms: _7  and  _8
REMARK    6  A    between atoms: _8  and  _9
REMARK    7  A    between atoms: _18  and  _20
REMARK    8  A    between atoms: _20  and  _21
REMARK    9  A    between atoms: _20  and  _23
REMARK   10  A    between atoms: _23  and  _24
REMARK   11  A    between atoms: _27  and  _29
REMARK   12  A    between atoms: _29  and  _30
REMARK   13  A    between atoms: _29  and  _32
REMARK   14  A    between atoms: _32  and  _33
REMARK   15  A    between atoms: _36  and  _38
REMARK   16  A    between atoms: _38  and  _39
REMARK   17  A    between atoms: _38  and  _41
REMARK   18  A    between atoms: _41  and  _42
REMARK   19  A    between atoms: _45  and  _47
REMARK   20  A    between atoms: _47  and  _48
REMARK   21  A    between atoms: _47  and  _50
REMARK   22  A    between atoms: _50  and  _51
REMARK   23  A    between atoms: _54  and  _56
REMARK   24  A    between atoms: _56  and  _57
REMARK   25  A    between atoms: _59  and  _61
REMARK   26  A    between atoms: _61  and  _62
REMARK   27  A    between atoms: _65  and  _67
REMARK   28  A    between atoms: _67  and  _68
REMARK   29  A    between atoms: _67  and  _70
REMARK   30  A    between atoms: _70  and  _71
REMARK   31  A    between atoms: _74  and  _76
REMARK   32  A    between atoms: _76  and  _77
REMARK   33  A    between atoms: _76  and  _79
REMARK   34  A    between atoms: _79  and  _80
REMARK   35  A    between atoms: _83  and  _85
REMARK   36  A    between atoms: _85  and  _86
REMARK   37  A    between atoms: _85  and  _88
REMARK   38  A    between atoms: _88  and  _89
REMARK   39  A    between atoms: _92  and  _94
REMARK   40  A    between atoms: _94  and  _95
REMARK   41  A    between atoms: _94  and  _97
REMARK   42  A    between atoms: _100  and  _102
REMARK   43  A    between atoms: _102  and  _103
REMARK   44  A    between atoms: _102  and  _105
REMARK   45  A    between atoms: _105  and  _106
REMARK   46  A    between atoms: _109  and  _111
REMARK   47  A    between atoms: _111  and  _112
REMARK   48  A    between atoms: _114  and  _116
REMARK   49  A    between atoms: _116  and  _117
REMARK   50  A    between atoms: _119  and  _121
REMARK   51  A    between atoms: _121  and  _122
REMARK   52  A    between atoms: _121  and  _124
REMARK   53  A    between atoms: _124  and  _125
REMARK   54  A    between atoms: _128  and  _130
REMARK   55  A    between atoms: _130  and  _131
REMARK   56  A    between atoms: _133  and  _135
REMARK   57  A    between atoms: _135  and  _136
REMARK   58  A    between atoms: _138  and  _140
REMARK   59  A    between atoms: _140  and  _141
REMARK   60  A    between atoms: _140  and  _143
REMARK   61  A    between atoms: _143  and  _144
REMARK   62  A    between atoms: _147  and  _149
REMARK   63  A    between atoms: _149  and  _150
REMARK   64  A    between atoms: _149  and  _152
REMARK   65  A    between atoms: _152  and  _153
REMARK   66  A    between atoms: _157  and  _158
REMARK   67  A    between atoms: _163  and  _165
REMARK   68  A    between atoms: _165  and  _166
REMARK   69  A    between atoms: _165  and  _168
REMARK   70  A    between atoms: _171  and  _173
REMARK   71  A    between atoms: _173  and  _174
REMARK   72  A    between atoms: _173  and  _176
REMARK   73  A    between atoms: _176  and  _177
REMARK   74  A    between atoms: _182  and  _184
REMARK   75  A    between atoms: _184  and  _185
REMARK   76  A    between atoms: _184  and  _187
REMARK   77  A    between atoms: _187  and  _188
REMARK   78  A    between atoms: _191  and  _193
REMARK   79  A    between atoms: _193  and  _194
REMARK   80  A    between atoms: _193  and  _196
REMARK   81  A    between atoms: _196  and  _197
REMARK   82  A    between atoms: _200  and  _202
REMARK   83  A    between atoms: _202  and  _203
REMARK   84  A    between atoms: _205  and  _207
REMARK   85  A    between atoms: _207  and  _208
REMARK   86  A    between atoms: _207  and  _210
REMARK   87  A    between atoms: _210  and  _211
REMARK   88  A    between atoms: _211  and  _212
REMARK   89  A    between atoms: _212  and  _213
REMARK   90  A    between atoms: _222  and  _224
REMARK   91  A    between atoms: _224  and  _225
REMARK   92  A    between atoms: _224  and  _227
REMARK   93  A    between atoms: _227  and  _228
REMARK   94  A    between atoms: _228  and  _229
REMARK   95  A    between atoms: _229  and  _230
REMARK   96  A    between atoms: _239  and  _241
REMARK   97  A    between atoms: _241  and  _242
REMARK   98  A    between atoms: _241  and  _244
REMARK   99  A    between atoms: _244  and  _245
REMARK  100  A    between atoms: _248  and  _250
REMARK  101  A    between atoms: _250  and  _251
REMARK  102  A    between atoms: _250  and  _253
REMARK  103  A    between atoms: _253  and  _254
REMARK  104  A    between atoms: _257  and  _259
REMARK  105  A    between atoms: _259  and  _260
REMARK  106  A    between atoms: _259  and  _262
REMARK  107  A    between atoms: _262  and  _263
REMARK  108  A    between atoms: _266  and  _268
REMARK  109  A    between atoms: _268  and  _269
REMARK  110  A    between atoms: _268  and  _271
REMARK  111  A    between atoms: _271  and  _272
REMARK  112  A    between atoms: _275  and  _277
REMARK  113  A    between atoms: _277  and  _278
REMARK  114  A    between atoms: _280  and  _282
REMARK  115  A    between atoms: _282  and  _283
REMARK  116  A    between atoms: _286  and  _288
REMARK  117  A    between atoms: _288  and  _289
REMARK  118  A    between atoms: _288  and  _291
REMARK  119  A    between atoms: _291  and  _292
REMARK  120  A    between atoms: _295  and  _297
REMARK  121  A    between atoms: _297  and  _298
REMARK  122  A    between atoms: _297  and  _300
REMARK  123  A    between atoms: _300  and  _301
REMARK  124  A    between atoms: _304  and  _306
REMARK  125  A    between atoms: _306  and  _307
REMARK  126  A    between atoms: _306  and  _309
REMARK  127  A    between atoms: _309  and  _310
REMARK  128  A    between atoms: _313  and  _315
REMARK  129  A    between atoms: _315  and  _316
REMARK  130  A    between atoms: _315  and  _318
REMARK  131  A    between atoms: _321  and  _323
REMARK  132  A    between atoms: _323  and  _324
REMARK  133  A    between atoms: _323  and  _326
REMARK  134  A    between atoms: _326  and  _327
REMARK  135  A    between atoms: _327  and  _328
REMARK  136  A    between atoms: _328  and  _329
REMARK  137  A    between atoms: _329  and  _330
REMARK  138  A    between atoms: _334  and  _336
REMARK  139  A    between atoms: _336  and  _337
REMARK  140  A    between atoms: _336  and  _339
REMARK  141  A    between atoms: _339  and  _340
REMARK  142  A    between atoms: _340  and  _341
REMARK  143  A    between atoms: _343  and  _345
REMARK  144  A    between atoms: _345  and  _346
REMARK  145  A    between atoms: _345  and  _348
REMARK  146  A    between atoms: _348  and  _349
REMARK  147  A    between atoms: _352  and  _354
REMARK  148  A    between atoms: _354  and  _355
REMARK  149  A    between atoms: _357  and  _359
REMARK  150  A    between atoms: _359  and  _360
REMARK  151  A    between atoms: _362  and  _364
REMARK  152  A    between atoms: _364  and  _365
REMARK  153  A    between atoms: _364  and  _367
REMARK  154  A    between atoms: _367  and  _368
REMARK  155  A    between atoms: _371  and  _373
REMARK  156  A    between atoms: _373  and  _374
REMARK  157  A    between atoms: _376  and  _378
REMARK  158  A    between atoms: _378  and  _379
REMARK  159  A    between atoms: _381  and  _383
REMARK  160  A    between atoms: _383  and  _384
REMARK  161  A    between atoms: _383  and  _386
REMARK  162  A    between atoms: _386  and  _387
REMARK  163  A    between atoms: _393  and  _395
REMARK  164  A    between atoms: _395  and  _396
REMARK  165  A    between atoms: _395  and  _398
REMARK  166  A    between atoms: _398  and  _399
REMARK  167  A    between atoms: _402  and  _404
REMARK  168  A    between atoms: _404  and  _405
REMARK  169  A    between atoms: _404  and  _407
REMARK  170  A    between atoms: _410  and  _412
REMARK  171  A    between atoms: _412  and  _413
REMARK  172  A    between atoms: _412  and  _415
REMARK  173  A    between atoms: _415  and  _416
REMARK  174  A    between atoms: _420  and  _421
REMARK  175  A    between atoms: _426  and  _428
REMARK  176  A    between atoms: _428  and  _429
REMARK  177  A    between atoms: _428  and  _431
REMARK  178  A    between atoms: _431  and  _432
REMARK  179  A    between atoms: _436  and  _437
REMARK  180  A    between atoms: _442  and  _444
REMARK  181  A    between atoms: _444  and  _445
REMARK  182  A    between atoms: _444  and  _447
REMARK  183  A    between atoms: _450  and  _452
REMARK  184  A    between atoms: _452  and  _453
REMARK  185  A    between atoms: _452  and  _455
REMARK  186  A    between atoms: _455  and  _456
REMARK  187  A    between atoms: _461  and  _463
REMARK  188  A    between atoms: _463  and  _464
REMARK  189  A    between atoms: _463  and  _466
REMARK  190  A    between atoms: _466  and  _467
REMARK  191  A    between atoms: _470  and  _472
REMARK  192  A    between atoms: _472  and  _473
REMARK  193  A    between atoms: _472  and  _475
REMARK  194  A    between atoms: _475  and  _476
REMARK  195  A    between atoms: _479  and  _481
REMARK  196  A    between atoms: _481  and  _482
REMARK  197  A    between atoms: _484  and  _486
REMARK  198  A    between atoms: _486  and  _487
REMARK  199  A    between atoms: _486  and  _489
REMARK  200  A    between atoms: _489  and  _490
REMARK  201  A    between atoms: _490  and  _491
REMARK  202  A    between atoms: _491  and  _492
REMARK  203  A    between atoms: _501  and  _503
REMARK  204  A    between atoms: _503  and  _504
REMARK  205  A    between atoms: _503  and  _506
REMARK  206  A    between atoms: _506  and  _507
REMARK                            x       y       z     vdW  Elec       q    Type
REMARK                         _______ _______ _______ _____ _____    ______ ____
ROOT
ATOM      1  O   HOH     1     -12.815  17.610  14.385  0.00  0.00    +0.000 OA
ENDROOT
TORSDOF 0
REMARK  Name = ../refined-set-2016/1gno/1gno_pocket.pdb
REMARK  206 active torsions:
REMARK  status: ('A' for Active; 'I' for Inactive)
REMARK    1  A    between atoms: _1  and  _3
REMARK    2  A    between atoms: _3  and  _4
REMARK    3  A    between atoms: _3  and  _6
REMARK    4  A    between atoms: _6  and  _7
REMARK    5  A    between atoms: _7  and  _8
REMARK    6  A    between atoms: _8  and  _9
REMARK    7  A    between atoms: _18  and  _20
REMARK    8  A    between atoms: _20  and  _21
REMARK    9  A    between atoms: _20  and  _23
REMARK   10  A    between atoms: _23  and  _24
REMARK   11  A    between atoms: _27  and  _29
REMARK   12  A    between atoms: _29  and  _30
REMARK   13  A    between atoms: _29  and  _32
REMARK   14  A    between atoms: _32  and  _33
REMARK   15  A    between atoms: _36  and  _38
REMARK   16  A    between atoms: _38  and  _39
REMARK   17  A    between atoms: _38  and  _41
REMARK   18  A    between atoms: _41  and  _42
REMARK   19  A    between atoms: _45  and  _47
REMARK   20  A    between atoms: _47  and  _48
REMARK   21  A    between atoms: _47  and  _50
REMARK   22  A    between atoms: _50  and  _51
REMARK   23  A    between atoms: _54  and  _56
REMARK   24  A    between atoms: _56  and  _57
REMARK   25  A    between atoms: _59  and  _61
REMARK   26  A    between atoms: _61  and  _62
REMARK   27  A    between atoms: _65  and  _67
REMARK   28  A    between atoms: _67  and  _68
REMARK   29  A    between atoms: _67  and  _70
REMARK   30  A    between atoms: _70  and  _71
REMARK   31  A    between atoms: _74  and  _76
REMARK   32  A    between atoms: _76  and  _77
REMARK   33  A    between atoms: _76  and  _79
REMARK   34  A    between atoms: _79  and  _80
REMARK   35  A    between atoms: _83  and  _85
REMARK   36  A    between atoms: _85  and  _86
REMARK   37  A    between atoms: _85  and  _88
REMARK   38  A    between atoms: _88  and  _89
REMARK   39  A    between atoms: _92  and  _94
REMARK   40  A    between atoms: _94  and  _95
REMARK   41  A    between atoms: _94  and  _97
REMARK   42  A    between atoms: _100  and  _102
REMARK   43  A    between atoms: _102  and  _103
REMARK   44  A    between atoms: _102  and  _105
REMARK   45  A    between atoms: _105  and  _106
REMARK   46  A    between atoms: _109  and  _111
REMARK   47  A    between atoms: _111  and  _112
REMARK   48  A    between atoms: _114  and  _116
REMARK   49  A    between atoms: _116  and  _117
REMARK   50  A    between atoms: _119  and  _121
REMARK   51  A    between atoms: _121  and  _122
REMARK   52  A    between atoms: _121  and  _124
REMARK   53  A    between atoms: _124  and  _125
REMARK   54  A    between atoms: _128  and  _130
REMARK   55  A    between atoms: _130  and  _131
REMARK   56  A    between atoms: _133  and  _135
REMARK   57  A    between atoms: _135  and  _136
REMARK   58  A    between atoms: _138  and  _140
REMARK   59  A    between atoms: _140  and  _141
REMARK   60  A    between atoms: _140  and  _143
REMARK   61  A    between atoms: _143  and  _144
REMARK   62  A    between atoms: _147  and  _149
REMARK   63  A    between atoms: _149  and  _150
REMARK   64  A    between atoms: _149  and  _152
REMARK   65  A    between atoms: _152  and  _153
REMARK   66  A    between atoms: _157  and  _158
REMARK   67  A    between atoms: _163  and  _165
REMARK   68  A    between atoms: _165  and  _166
REMARK   69  A    between atoms: _165  and  _168
REMARK   70  A    between atoms: _171  and  _173
REMARK   71  A    between atoms: _173  and  _174
REMARK   72  A    between atoms: _173  and  _176
REMARK   73  A    between atoms: _176  and  _177
REMARK   74  A    between atoms: _182  and  _184
REMARK   75  A    between atoms: _184  and  _185
REMARK   76  A    between atoms: _184  and  _187
REMARK   77  A    between atoms: _187  and  _188
REMARK   78  A    between atoms: _191  and  _193
REMARK   79  A    between atoms: _193  and  _194
REMARK   80  A    between atoms: _193  and  _196
REMARK   81  A    between atoms: _196  and  _197
REMARK   82  A    between atoms: _200  and  _202
REMARK   83  A    between atoms: _202  and  _203
REMARK   84  A    between atoms: _205  and  _207
REMARK   85  A    between atoms: _207  and  _208
REMARK   86  A    between atoms: _207  and  _210
REMARK   87  A    between atoms: _210  and  _211
REMARK   88  A    between atoms: _211  and  _212
REMARK   89  A    between atoms: _212  and  _213
REMARK   90  A    between atoms: _222  and  _224
REMARK   91  A    between atoms: _224  and  _225
REMARK   92  A    between atoms: _224  and  _227
REMARK   93  A    between atoms: _227  and  _228
REMARK   94  A    between atoms: _228  and  _229
REMARK   95  A    between atoms: _229  and  _230
REMARK   96  A    between atoms: _239  and  _241
REMARK   97  A    between atoms: _241  and  _242
REMARK   98  A    between atoms: _241  and  _244
REMARK   99  A    between atoms: _244  and  _245
REMARK  100  A    between atoms: _248  and  _250
REMARK  101  A    between atoms: _250  and  _251
REMARK  102  A    between atoms: _250  and  _253
REMARK  103  A    between atoms: _253  and  _254
REMARK  104  A    between atoms: _257  and  _259
REMARK  105  A    between atoms: _259  and  _260
REMARK  106  A    between atoms: _259  and  _262
REMARK  107  A    between atoms: _262  and  _263
REMARK  108  A    between atoms: _266  and  _268
REMARK  109  A    between atoms: _268  and  _269
REMARK  110  A    between atoms: _268  and  _271
REMARK  111  A    between atoms: _271  and  _272
REMARK  112  A    between atoms: _275  and  _277
REMARK  113  A    between atoms: _277  and  _278
REMARK  114  A    between atoms: _280  and  _282
REMARK  115  A    between atoms: _282  and  _283
REMARK  116  A    between atoms: _286  and  _288
REMARK  117  A    between atoms: _288  and  _289
REMARK  118  A    between atoms: _288  and  _291
REMARK  119  A    between atoms: _291  and  _292
REMARK  120  A    between atoms: _295  and  _297
REMARK  121  A    between atoms: _297  and  _298
REMARK  122  A    between atoms: _297  and  _300
REMARK  123  A    between atoms: _300  and  _301
REMARK  124  A    between atoms: _304  and  _306
REMARK  125  A    between atoms: _306  and  _307
REMARK  126  A    between atoms: _306  and  _309
REMARK  127  A    between atoms: _309  and  _310
REMARK  128  A    between atoms: _313  and  _315
REMARK  129  A    between atoms: _315  and  _316
REMARK  130  A    between atoms: _315  and  _318
REMARK  131  A    between atoms: _321  and  _323
REMARK  132  A    between atoms: _323  and  _324
REMARK  133  A    between atoms: _323  and  _326
REMARK  134  A    between atoms: _326  and  _327
REMARK  135  A    between atoms: _327  and  _328
REMARK  136  A    between atoms: _328  and  _329
REMARK  137  A    between atoms: _329  and  _330
REMARK  138  A    between atoms: _334  and  _336
REMARK  139  A    between atoms: _336  and  _337
REMARK  140  A    between atoms: _336  and  _339
REMARK  141  A    between atoms: _339  and  _340
REMARK  142  A    between atoms: _340  and  _341
REMARK  143  A    between atoms: _343  and  _345
REMARK  144  A    between atoms: _345  and  _346
REMARK  145  A    between atoms: _345  and  _348
REMARK  146  A    between atoms: _348  and  _349
REMARK  147  A    between atoms: _352  and  _354
REMARK  148  A    between atoms: _354  and  _355
REMARK  149  A    between atoms: _357  and  _359
REMARK  150  A    between atoms: _359  and  _360
REMARK  151  A    between atoms: _362  and  _364
REMARK  152  A    between atoms: _364  and  _365
REMARK  153  A    between atoms: _364  and  _367
REMARK  154  A    between atoms: _367  and  _368
REMARK  155  A    between atoms: _371  and  _373
REMARK  156  A    between atoms: _373  and  _374
REMARK  157  A    between atoms: _376  and  _378
REMARK  158  A    between atoms: _378  and  _379
REMARK  159  A    between atoms: _381  and  _383
REMARK  160  A    between atoms: _383  and  _384
REMARK  161  A    between atoms: _383  and  _386
REMARK  162  A    between atoms: _386  and  _387
REMARK  163  A    between atoms: _393  and  _395
REMARK  164  A    between atoms: _395  and  _396
REMARK  165  A    between atoms: _395  and  _398
REMARK  166  A    between atoms: _398  and  _399
REMARK  167  A    between atoms: _402  and  _404
REMARK  168  A    between atoms: _404  and  _405
REMARK  169  A    between atoms: _404  and  _407
REMARK  170  A    between atoms: _410  and  _412
REMARK  171  A    between atoms: _412  and  _413
REMARK  172  A    between atoms: _412  and  _415
REMARK  173  A    between atoms: _415  and  _416
REMARK  174  A    between atoms: _420  and  _421
REMARK  175  A    between atoms: _426  and  _428
REMARK  176  A    between atoms: _428  and  _429
REMARK  177  A    between atoms: _428  and  _431
REMARK  178  A    between atoms: _431  and  _432
REMARK  179  A    between atoms: _436  and  _437
REMARK  180  A    between atoms: _442  and  _444
REMARK  181  A    between atoms: _444  and  _445
REMARK  182  A    between atoms: _444  and  _447
REMARK  183  A    between atoms: _450  and  _452
REMARK  184  A    between atoms: _452  and  _453
REMARK  185  A    between atoms: _452  and  _455
REMARK  186  A    between atoms: _455  and  _456
REMARK  187  A    between atoms: _461  and  _463
REMARK  188  A    between atoms: _463  and  _464
REMARK  189  A    between atoms: _463  and  _466
REMARK  190  A    between atoms: _466  and  _467
REMARK  191  A    between atoms: _470  and  _472
REMARK  192  A    between atoms: _472  and  _473
REMARK  193  A    between atoms: _472  and  _475
REMARK  194  A    between atoms: _475  and  _476
REMARK  195  A    between atoms: _479  and  _481
REMARK  196  A    between atoms: _481  and  _482
REMARK  197  A    between atoms: _484  and  _486
REMARK  198  A    between atoms: _486  and  _487
REMARK  199  A    between atoms: _486  and  _489
REMARK  200  A    between atoms: _489  and  _490
REMARK  201  A    between atoms: _490  and  _491
REMARK  202  A    between atoms: _491  and  _492
REMARK  203  A    between atoms: _501  and  _503
REMARK  204  A    between atoms: _503  and  _504
REMARK  205  A    between atoms: _503  and  _506
REMARK  206  A    between atoms: _506  and  _507
REMARK                            x       y       z     vdW  Elec       q    Type
REMARK                         _______ _______ _______ _____ _____    ______ ____
ROOT
ATOM      1  O   HOH     1      -8.151  13.873  27.488  0.00  0.00    +0.000 OA
ENDROOT
TORSDOF 0
REMARK  Name = ../refined-set-2016/1gno/1gno_pocket.pdb
REMARK  206 active torsions:
REMARK  status: ('A' for Active; 'I' for Inactive)
REMARK    1  A    between atoms: _1  and  _3
REMARK    2  A    between atoms: _3  and  _4
REMARK    3  A    between atoms: _3  and  _6
REMARK    4  A    between atoms: _6  and  _7
REMARK    5  A    between atoms: _7  and  _8
REMARK    6  A    between atoms: _8  and  _9
REMARK    7  A    between atoms: _18  and  _20
REMARK    8  A    between atoms: _20  and  _21
REMARK    9  A    between atoms: _20  and  _23
REMARK   10  A    between atoms: _23  and  _24
REMARK   11  A    between atoms: _27  and  _29
REMARK   12  A    between atoms: _29  and  _30
REMARK   13  A    between atoms: _29  and  _32
REMARK   14  A    between atoms: _32  and  _33
REMARK   15  A    between atoms: _36  and  _38
REMARK   16  A    between atoms: _38  and  _39
REMARK   17  A    between atoms: _38  and  _41
REMARK   18  A    between atoms: _41  and  _42
REMARK   19  A    between atoms: _45  and  _47
REMARK   20  A    between atoms: _47  and  _48
REMARK   21  A    between atoms: _47  and  _50
REMARK   22  A    between atoms: _50  and  _51
REMARK   23  A    between atoms: _54  and  _56
REMARK   24  A    between atoms: _56  and  _57
REMARK   25  A    between atoms: _59  and  _61
REMARK   26  A    between atoms: _61  and  _62
REMARK   27  A    between atoms: _65  and  _67
REMARK   28  A    between atoms: _67  and  _68
REMARK   29  A    between atoms: _67  and  _70
REMARK   30  A    between atoms: _70  and  _71
REMARK   31  A    between atoms: _74  and  _76
REMARK   32  A    between atoms: _76  and  _77
REMARK   33  A    between atoms: _76  and  _79
REMARK   34  A    between atoms: _79  and  _80
REMARK   35  A    between atoms: _83  and  _85
REMARK   36  A    between atoms: _85  and  _86
REMARK   37  A    between atoms: _85  and  _88
REMARK   38  A    between atoms: _88  and  _89
REMARK   39  A    between atoms: _92  and  _94
REMARK   40  A    between atoms: _94  and  _95
REMARK   41  A    between atoms: _94  and  _97
REMARK   42  A    between atoms: _100  and  _102
REMARK   43  A    between atoms: _102  and  _103
REMARK   44  A    between atoms: _102  and  _105
REMARK   45  A    between atoms: _105  and  _106
REMARK   46  A    between atoms: _109  and  _111
REMARK   47  A    between atoms: _111  and  _112
REMARK   48  A    between atoms: _114  and  _116
REMARK   49  A    between atoms: _116  and  _117
REMARK   50  A    between atoms: _119  and  _121
REMARK   51  A    between atoms: _121  and  _122
REMARK   52  A    between atoms: _121  and  _124
REMARK   53  A    between atoms: _124  and  _125
REMARK   54  A    between atoms: _128  and  _130
REMARK   55  A    between atoms: _130  and  _131
REMARK   56  A    between atoms: _133  and  _135
REMARK   57  A    between atoms: _135  and  _136
REMARK   58  A    between atoms: _138  and  _140
REMARK   59  A    between atoms: _140  and  _141
REMARK   60  A    between atoms: _140  and  _143
REMARK   61  A    between atoms: _143  and  _144
REMARK   62  A    between atoms: _147  and  _149
REMARK   63  A    between atoms: _149  and  _150
REMARK   64  A    between atoms: _149  and  _152
REMARK   65  A    between atoms: _152  and  _153
REMARK   66  A    between atoms: _157  and  _158
REMARK   67  A    between atoms: _163  and  _165
REMARK   68  A    between atoms: _165  and  _166
REMARK   69  A    between atoms: _165  and  _168
REMARK   70  A    between atoms: _171  and  _173
REMARK   71  A    between atoms: _173  and  _174
REMARK   72  A    between atoms: _173  and  _176
REMARK   73  A    between atoms: _176  and  _177
REMARK   74  A    between atoms: _182  and  _184
REMARK   75  A    between atoms: _184  and  _185
REMARK   76  A    between atoms: _184  and  _187
REMARK   77  A    between atoms: _187  and  _188
REMARK   78  A    between atoms: _191  and  _193
REMARK   79  A    between atoms: _193  and  _194
REMARK   80  A    between atoms: _193  and  _196
REMARK   81  A    between atoms: _196  and  _197
REMARK   82  A    between atoms: _200  and  _202
REMARK   83  A    between atoms: _202  and  _203
REMARK   84  A    between atoms: _205  and  _207
REMARK   85  A    between atoms: _207  and  _208
REMARK   86  A    between atoms: _207  and  _210
REMARK   87  A    between atoms: _210  and  _211
REMARK   88  A    between atoms: _211  and  _212
REMARK   89  A    between atoms: _212  and  _213
REMARK   90  A    between atoms: _222  and  _224
REMARK   91  A    between atoms: _224  and  _225
REMARK   92  A    between atoms: _224  and  _227
REMARK   93  A    between atoms: _227  and  _228
REMARK   94  A    between atoms: _228  and  _229
REMARK   95  A    between atoms: _229  and  _230
REMARK   96  A    between atoms: _239  and  _241
REMARK   97  A    between atoms: _241  and  _242
REMARK   98  A    between atoms: _241  and  _244
REMARK   99  A    between atoms: _244  and  _245
REMARK  100  A    between atoms: _248  and  _250
REMARK  101  A    between atoms: _250  and  _251
REMARK  102  A    between atoms: _250  and  _253
REMARK  103  A    between atoms: _253  and  _254
REMARK  104  A    between atoms: _257  and  _259
REMARK  105  A    between atoms: _259  and  _260
REMARK  106  A    between atoms: _259  and  _262
REMARK  107  A    between atoms: _262  and  _263
REMARK  108  A    between atoms: _266  and  _268
REMARK  109  A    between atoms: _268  and  _269
REMARK  110  A    between atoms: _268  and  _271
REMARK  111  A    between atoms: _271  and  _272
REMARK  112  A    between atoms: _275  and  _277
REMARK  113  A    between atoms: _277  and  _278
REMARK  114  A    between atoms: _280  and  _282
REMARK  115  A    between atoms: _282  and  _283
REMARK  116  A    between atoms: _286  and  _288
REMARK  117  A    between atoms: _288  and  _289
REMARK  118  A    between atoms: _288  and  _291
REMARK  119  A    between atoms: _291  and  _292
REMARK  120  A    between atoms: _295  and  _297
REMARK  121  A    between atoms: _297  and  _298
REMARK  122  A    between atoms: _297  and  _300
REMARK  123  A    between atoms: _300  and  _301
REMARK  124  A    between atoms: _304  and  _306
REMARK  125  A    between atoms: _306  and  _307
REMARK  126  A    between atoms: _306  and  _309
REMARK  127  A    between atoms: _309  and  _310
REMARK  128  A    between atoms: _313  and  _315
REMARK  129  A    between atoms: _315  and  _316
REMARK  130  A    between atoms: _315  and  _318
REMARK  131  A    between atoms: _321  and  _323
REMARK  132  A    between atoms: _323  and  _324
REMARK  133  A    between atoms: _323  and  _326
REMARK  134  A    between atoms: _326  and  _327
REMARK  135  A    between atoms: _327  and  _328
REMARK  136  A    between atoms: _328  and  _329
REMARK  137  A    between atoms: _329  and  _330
REMARK  138  A    between atoms: _334  and  _336
REMARK  139  A    between atoms: _336  and  _337
REMARK  140  A    between atoms: _336  and  _339
REMARK  141  A    between atoms: _339  and  _340
REMARK  142  A    between atoms: _340  and  _341
REMARK  143  A    between atoms: _343  and  _345
REMARK  144  A    between atoms: _345  and  _346
REMARK  145  A    between atoms: _345  and  _348
REMARK  146  A    between atoms: _348  and  _349
REMARK  147  A    between atoms: _352  and  _354
REMARK  148  A    between atoms: _354  and  _355
REMARK  149  A    between atoms: _357  and  _359
REMARK  150  A    between atoms: _359  and  _360
REMARK  151  A    between atoms: _362  and  _364
REMARK  152  A    between atoms: _364  and  _365
REMARK  153  A    between atoms: _364  and  _367
REMARK  154  A    between atoms: _367  and  _368
REMARK  155  A    between atoms: _371  and  _373
REMARK  156  A    between atoms: _373  and  _374
REMARK  157  A    between atoms: _376  and  _378
REMARK  158  A    between atoms: _378  and  _379
REMARK  159  A    between atoms: _381  and  _383
REMARK  160  A    between atoms: _383  and  _384
REMARK  161  A    between atoms: _383  and  _386
REMARK  162  A    between atoms: _386  and  _387
REMARK  163  A    between atoms: _393  and  _395
REMARK  164  A    between atoms: _395  and  _396
REMARK  165  A    between atoms: _395  and  _398
REMARK  166  A    between atoms: _398  and  _399
REMARK  167  A    between atoms: _402  and  _404
REMARK  168  A    between atoms: _404  and  _405
REMARK  169  A    between atoms: _404  and  _407
REMARK  170  A    between atoms: _410  and  _412
REMARK  171  A    between atoms: _412  and  _413
REMARK  172  A    between atoms: _412  and  _415
REMARK  173  A    between atoms: _415  and  _416
REMARK  174  A    between atoms: _420  and  _421
REMARK  175  A    between atoms: _426  and  _428
REMARK  176  A    between atoms: _428  and  _429
REMARK  177  A    between atoms: _428  and  _431
REMARK  178  A    between atoms: _431  and  _432
REMARK  179  A    between atoms: _436  and  _437
REMARK  180  A    between atoms: _442  and  _444
REMARK  181  A    between atoms: _444  and  _445
REMARK  182  A    between atoms: _444  and  _447
REMARK  183  A    between atoms: _450  and  _452
REMARK  184  A    between atoms: _452  and  _453
REMARK  185  A    between atoms: _452  and  _455
REMARK  186  A    between atoms: _455  and  _456
REMARK  187  A    between atoms: _461  and  _463
REMARK  188  A    between atoms: _463  and  _464
REMARK  189  A    between atoms: _463  and  _466
REMARK  190  A    between atoms: _466  and  _467
REMARK  191  A    between atoms: _470  and  _472
REMARK  192  A    between atoms: _472  and  _473
REMARK  193  A    between atoms: _472  and  _475
REMARK  194  A    between atoms: _475  and  _476
REMARK  195  A    between atoms: _479  and  _481
REMARK  196  A    between atoms: _481  and  _482
REMARK  197  A    between atoms: _484  and  _486
REMARK  198  A    between atoms: _486  and  _487
REMARK  199  A    between atoms: _486  and  _489
REMARK  200  A    between atoms: _489  and  _490
REMARK  201  A    between atoms: _490  and  _491
REMARK  202  A    between atoms: _491  and  _492
REMARK  203  A    between atoms: _501  and  _503
REMARK  204  A    between atoms: _503  and  _504
REMARK  205  A    between atoms: _503  and  _506
REMARK  206  A    between atoms: _506  and  _507
REMARK                            x       y       z     vdW  Elec       q    Type
REMARK                         _______ _______ _______ _____ _____    ______ ____
ROOT
ATOM      1  O   HOH     1      -9.735  18.013  12.529  0.00  0.00    +0.000 OA
ENDROOT
TORSDOF 0
REMARK  Name = ../refined-set-2016/1gno/1gno_pocket.pdb
REMARK  206 active torsions:
REMARK  status: ('A' for Active; 'I' for Inactive)
REMARK    1  A    between atoms: _1  and  _3
REMARK    2  A    between atoms: _3  and  _4
REMARK    3  A    between atoms: _3  and  _6
REMARK    4  A    between atoms: _6  and  _7
REMARK    5  A    between atoms: _7  and  _8
REMARK    6  A    between atoms: _8  and  _9
REMARK    7  A    between atoms: _18  and  _20
REMARK    8  A    between atoms: _20  and  _21
REMARK    9  A    between atoms: _20  and  _23
REMARK   10  A    between atoms: _23  and  _24
REMARK   11  A    between atoms: _27  and  _29
REMARK   12  A    between atoms: _29  and  _30
REMARK   13  A    between atoms: _29  and  _32
REMARK   14  A    between atoms: _32  and  _33
REMARK   15  A    between atoms: _36  and  _38
REMARK   16  A    between atoms: _38  and  _39
REMARK   17  A    between atoms: _38  and  _41
REMARK   18  A    between atoms: _41  and  _42
REMARK   19  A    between atoms: _45  and  _47
REMARK   20  A    between atoms: _47  and  _48
REMARK   21  A    between atoms: _47  and  _50
REMARK   22  A    between atoms: _50  and  _51
REMARK   23  A    between atoms: _54  and  _56
REMARK   24  A    between atoms: _56  and  _57
REMARK   25  A    between atoms: _59  and  _61
REMARK   26  A    between atoms: _61  and  _62
REMARK   27  A    between atoms: _65  and  _67
REMARK   28  A    between atoms: _67  and  _68
REMARK   29  A    between atoms: _67  and  _70
REMARK   30  A    between atoms: _70  and  _71
REMARK   31  A    between atoms: _74  and  _76
REMARK   32  A    between atoms: _76  and  _77
REMARK   33  A    between atoms: _76  and  _79
REMARK   34  A    between atoms: _79  and  _80
REMARK   35  A    between atoms: _83  and  _85
REMARK   36  A    between atoms: _85  and  _86
REMARK   37  A    between atoms: _85  and  _88
REMARK   38  A    between atoms: _88  and  _89
REMARK   39  A    between atoms: _92  and  _94
REMARK   40  A    between atoms: _94  and  _95
REMARK   41  A    between atoms: _94  and  _97
REMARK   42  A    between atoms: _100  and  _102
REMARK   43  A    between atoms: _102  and  _103
REMARK   44  A    between atoms: _102  and  _105
REMARK   45  A    between atoms: _105  and  _106
REMARK   46  A    between atoms: _109  and  _111
REMARK   47  A    between atoms: _111  and  _112
REMARK   48  A    between atoms: _114  and  _116
REMARK   49  A    between atoms: _116  and  _117
REMARK   50  A    between atoms: _119  and  _121
REMARK   51  A    between atoms: _121  and  _122
REMARK   52  A    between atoms: _121  and  _124
REMARK   53  A    between atoms: _124  and  _125
REMARK   54  A    between atoms: _128  and  _130
REMARK   55  A    between atoms: _130  and  _131
REMARK   56  A    between atoms: _133  and  _135
REMARK   57  A    between atoms: _135  and  _136
REMARK   58  A    between atoms: _138  and  _140
REMARK   59  A    between atoms: _140  and  _141
REMARK   60  A    between atoms: _140  and  _143
REMARK   61  A    between atoms: _143  and  _144
REMARK   62  A    between atoms: _147  and  _149
REMARK   63  A    between atoms: _149  and  _150
REMARK   64  A    between atoms: _149  and  _152
REMARK   65  A    between atoms: _152  and  _153
REMARK   66  A    between atoms: _157  and  _158
REMARK   67  A    between atoms: _163  and  _165
REMARK   68  A    between atoms: _165  and  _166
REMARK   69  A    between atoms: _165  and  _168
REMARK   70  A    between atoms: _171  and  _173
REMARK   71  A    between atoms: _173  and  _174
REMARK   72  A    between atoms: _173  and  _176
REMARK   73  A    between atoms: _176  and  _177
REMARK   74  A    between atoms: _182  and  _184
REMARK   75  A    between atoms: _184  and  _185
REMARK   76  A    between atoms: _184  and  _187
REMARK   77  A    between atoms: _187  and  _188
REMARK   78  A    between atoms: _191  and  _193
REMARK   79  A    between atoms: _193  and  _194
REMARK   80  A    between atoms: _193  and  _196
REMARK   81  A    between atoms: _196  and  _197
REMARK   82  A    between atoms: _200  and  _202
REMARK   83  A    between atoms: _202  and  _203
REMARK   84  A    between atoms: _205  and  _207
REMARK   85  A    between atoms: _207  and  _208
REMARK   86  A    between atoms: _207  and  _210
REMARK   87  A    between atoms: _210  and  _211
REMARK   88  A    between atoms: _211  and  _212
REMARK   89  A    between atoms: _212  and  _213
REMARK   90  A    between atoms: _222  and  _224
REMARK   91  A    between atoms: _224  and  _225
REMARK   92  A    between atoms: _224  and  _227
REMARK   93  A    between atoms: _227  and  _228
REMARK   94  A    between atoms: _228  and  _229
REMARK   95  A    between atoms: _229  and  _230
REMARK   96  A    between atoms: _239  and  _241
REMARK   97  A    between atoms: _241  and  _242
REMARK   98  A    between atoms: _241  and  _244
REMARK   99  A    between atoms: _244  and  _245
REMARK  100  A    between atoms: _248  and  _250
REMARK  101  A    between atoms: _250  and  _251
REMARK  102  A    between atoms: _250  and  _253
REMARK  103  A    between atoms: _253  and  _254
REMARK  104  A    between atoms: _257  and  _259
REMARK  105  A    between atoms: _259  and  _260
REMARK  106  A    between atoms: _259  and  _262
REMARK  107  A    between atoms: _262  and  _263
REMARK  108  A    between atoms: _266  and  _268
REMARK  109  A    between atoms: _268  and  _269
REMARK  110  A    between atoms: _268  and  _271
REMARK  111  A    between atoms: _271  and  _272
REMARK  112  A    between atoms: _275  and  _277
REMARK  113  A    between atoms: _277  and  _278
REMARK  114  A    between atoms: _280  and  _282
REMARK  115  A    between atoms: _282  and  _283
REMARK  116  A    between atoms: _286  and  _288
REMARK  117  A    between atoms: _288  and  _289
REMARK  118  A    between atoms: _288  and  _291
REMARK  119  A    between atoms: _291  and  _292
REMARK  120  A    between atoms: _295  and  _297
REMARK  121  A    between atoms: _297  and  _298
REMARK  122  A    between atoms: _297  and  _300
REMARK  123  A    between atoms: _300  and  _301
REMARK  124  A    between atoms: _304  and  _306
REMARK  125  A    between atoms: _306  and  _307
REMARK  126  A    between atoms: _306  and  _309
REMARK  127  A    between atoms: _309  and  _310
REMARK  128  A    between atoms: _313  and  _315
REMARK  129  A    between atoms: _315  and  _316
REMARK  130  A    between atoms: _315  and  _318
REMARK  131  A    between atoms: _321  and  _323
REMARK  132  A    between atoms: _323  and  _324
REMARK  133  A    between atoms: _323  and  _326
REMARK  134  A    between atoms: _326  and  _327
REMARK  135  A    between atoms: _327  and  _328
REMARK  136  A    between atoms: _328  and  _329
REMARK  137  A    between atoms: _329  and  _330
REMARK  138  A    between atoms: _334  and  _336
REMARK  139  A    between atoms: _336  and  _337
REMARK  140  A    between atoms: _336  and  _339
REMARK  141  A    between atoms: _339  and  _340
REMARK  142  A    between atoms: _340  and  _341
REMARK  143  A    between atoms: _343  and  _345
REMARK  144  A    between atoms: _345  and  _346
REMARK  145  A    between atoms: _345  and  _348
REMARK  146  A    between atoms: _348  and  _349
REMARK  147  A    between atoms: _352  and  _354
REMARK  148  A    between atoms: _354  and  _355
REMARK  149  A    between atoms: _357  and  _359
REMARK  150  A    between atoms: _359  and  _360
REMARK  151  A    between atoms: _362  and  _364
REMARK  152  A    between atoms: _364  and  _365
REMARK  153  A    between atoms: _364  and  _367
REMARK  154  A    between atoms: _367  and  _368
REMARK  155  A    between atoms: _371  and  _373
REMARK  156  A    between atoms: _373  and  _374
REMARK  157  A    between atoms: _376  and  _378
REMARK  158  A    between atoms: _378  and  _379
REMARK  159  A    between atoms: _381  and  _383
REMARK  160  A    between atoms: _383  and  _384
REMARK  161  A    between atoms: _383  and  _386
REMARK  162  A    between atoms: _386  and  _387
REMARK  163  A    between atoms: _393  and  _395
REMARK  164  A    between atoms: _395  and  _396
REMARK  165  A    between atoms: _395  and  _398
REMARK  166  A    between atoms: _398  and  _399
REMARK  167  A    between atoms: _402  and  _404
REMARK  168  A    between atoms: _404  and  _405
REMARK  169  A    between atoms: _404  and  _407
REMARK  170  A    between atoms: _410  and  _412
REMARK  171  A    between atoms: _412  and  _413
REMARK  172  A    between atoms: _412  and  _415
REMARK  173  A    between atoms: _415  and  _416
REMARK  174  A    between atoms: _420  and  _421
REMARK  175  A    between atoms: _426  and  _428
REMARK  176  A    between atoms: _428  and  _429
REMARK  177  A    between atoms: _428  and  _431
REMARK  178  A    between atoms: _431  and  _432
REMARK  179  A    between atoms: _436  and  _437
REMARK  180  A    between atoms: _442  and  _444
REMARK  181  A    between atoms: _444  and  _445
REMARK  182  A    between atoms: _444  and  _447
REMARK  183  A    between atoms: _450  and  _452
REMARK  184  A    between atoms: _452  and  _453
REMARK  185  A    between atoms: _452  and  _455
REMARK  186  A    between atoms: _455  and  _456
REMARK  187  A    between atoms: _461  and  _463
REMARK  188  A    between atoms: _463  and  _464
REMARK  189  A    between atoms: _463  and  _466
REMARK  190  A    between atoms: _466  and  _467
REMARK  191  A    between atoms: _470  and  _472
REMARK  192  A    between atoms: _472  and  _473
REMARK  193  A    between atoms: _472  and  _475
REMARK  194  A    between atoms: _475  and  _476
REMARK  195  A    between atoms: _479  and  _481
REMARK  196  A    between atoms: _481  and  _482
REMARK  197  A    between atoms: _484  and  _486
REMARK  198  A    between atoms: _486  and  _487
REMARK  199  A    between atoms: _486  and  _489
REMARK  200  A    between atoms: _489  and  _490
REMARK  201  A    between atoms: _490  and  _491
REMARK  202  A    between atoms: _491  and  _492
REMARK  203  A    between atoms: _501  and  _503
REMARK  204  A    between atoms: _503  and  _504
REMARK  205  A    between atoms: _503  and  _506
REMARK  206  A    between atoms: _506  and  _507
REMARK                            x       y       z     vdW  Elec       q    Type
REMARK                         _______ _______ _______ _____ _____    ______ ____
ROOT
ATOM      1  O   HOH     1       1.341  15.949  23.761  0.00  0.00    +0.000 OA
ENDROOT
TORSDOF 0
REMARK  Name = ../refined-set-2016/1gno/1gno_pocket.pdb
REMARK  206 active torsions:
REMARK  status: ('A' for Active; 'I' for Inactive)
REMARK    1  A    between atoms: _1  and  _3
REMARK    2  A    between atoms: _3  and  _4
REMARK    3  A    between atoms: _3  and  _6
REMARK    4  A    between atoms: _6  and  _7
REMARK    5  A    between atoms: _7  and  _8
REMARK    6  A    between atoms: _8  and  _9
REMARK    7  A    between atoms: _18  and  _20
REMARK    8  A    between atoms: _20  and  _21
REMARK    9  A    between atoms: _20  and  _23
REMARK   10  A    between atoms: _23  and  _24
REMARK   11  A    between atoms: _27  and  _29
REMARK   12  A    between atoms: _29  and  _30
REMARK   13  A    between atoms: _29  and  _32
REMARK   14  A    between atoms: _32  and  _33
REMARK   15  A    between atoms: _36  and  _38
REMARK   16  A    between atoms: _38  and  _39
REMARK   17  A    between atoms: _38  and  _41
REMARK   18  A    between atoms: _41  and  _42
REMARK   19  A    between atoms: _45  and  _47
REMARK   20  A    between atoms: _47  and  _48
REMARK   21  A    between atoms: _47  and  _50
REMARK   22  A    between atoms: _50  and  _51
REMARK   23  A    between atoms: _54  and  _56
REMARK   24  A    between atoms: _56  and  _57
REMARK   25  A    between atoms: _59  and  _61
REMARK   26  A    between atoms: _61  and  _62
REMARK   27  A    between atoms: _65  and  _67
REMARK   28  A    between atoms: _67  and  _68
REMARK   29  A    between atoms: _67  and  _70
REMARK   30  A    between atoms: _70  and  _71
REMARK   31  A    between atoms: _74  and  _76
REMARK   32  A    between atoms: _76  and  _77
REMARK   33  A    between atoms: _76  and  _79
REMARK   34  A    between atoms: _79  and  _80
REMARK   35  A    between atoms: _83  and  _85
REMARK   36  A    between atoms: _85  and  _86
REMARK   37  A    between atoms: _85  and  _88
REMARK   38  A    between atoms: _88  and  _89
REMARK   39  A    between atoms: _92  and  _94
REMARK   40  A    between atoms: _94  and  _95
REMARK   41  A    between atoms: _94  and  _97
REMARK   42  A    between atoms: _100  and  _102
REMARK   43  A    between atoms: _102  and  _103
REMARK   44  A    between atoms: _102  and  _105
REMARK   45  A    between atoms: _105  and  _106
REMARK   46  A    between atoms: _109  and  _111
REMARK   47  A    between atoms: _111  and  _112
REMARK   48  A    between atoms: _114  and  _116
REMARK   49  A    between atoms: _116  and  _117
REMARK   50  A    between atoms: _119  and  _121
REMARK   51  A    between atoms: _121  and  _122
REMARK   52  A    between atoms: _121  and  _124
REMARK   53  A    between atoms: _124  and  _125
REMARK   54  A    between atoms: _128  and  _130
REMARK   55  A    between atoms: _130  and  _131
REMARK   56  A    between atoms: _133  and  _135
REMARK   57  A    between atoms: _135  and  _136
REMARK   58  A    between atoms: _138  and  _140
REMARK   59  A    between atoms: _140  and  _141
REMARK   60  A    between atoms: _140  and  _143
REMARK   61  A    between atoms: _143  and  _144
REMARK   62  A    between atoms: _147  and  _149
REMARK   63  A    between atoms: _149  and  _150
REMARK   64  A    between atoms: _149  and  _152
REMARK   65  A    between atoms: _152  and  _153
REMARK   66  A    between atoms: _157  and  _158
REMARK   67  A    between atoms: _163  and  _165
REMARK   68  A    between atoms: _165  and  _166
REMARK   69  A    between atoms: _165  and  _168
REMARK   70  A    between atoms: _171  and  _173
REMARK   71  A    between atoms: _173  and  _174
REMARK   72  A    between atoms: _173  and  _176
REMARK   73  A    between atoms: _176  and  _177
REMARK   74  A    between atoms: _182  and  _184
REMARK   75  A    between atoms: _184  and  _185
REMARK   76  A    between atoms: _184  and  _187
REMARK   77  A    between atoms: _187  and  _188
REMARK   78  A    between atoms: _191  and  _193
REMARK   79  A    between atoms: _193  and  _194
REMARK   80  A    between atoms: _193  and  _196
REMARK   81  A    between atoms: _196  and  _197
REMARK   82  A    between atoms: _200  and  _202
REMARK   83  A    between atoms: _202  and  _203
REMARK   84  A    between atoms: _205  and  _207
REMARK   85  A    between atoms: _207  and  _208
REMARK   86  A    between atoms: _207  and  _210
REMARK   87  A    between atoms: _210  and  _211
REMARK   88  A    between atoms: _211  and  _212
REMARK   89  A    between atoms: _212  and  _213
REMARK   90  A    between atoms: _222  and  _224
REMARK   91  A    between atoms: _224  and  _225
REMARK   92  A    between atoms: _224  and  _227
REMARK   93  A    between atoms: _227  and  _228
REMARK   94  A    between atoms: _228  and  _229
REMARK   95  A    between atoms: _229  and  _230
REMARK   96  A    between atoms: _239  and  _241
REMARK   97  A    between atoms: _241  and  _242
REMARK   98  A    between atoms: _241  and  _244
REMARK   99  A    between atoms: _244  and  _245
REMARK  100  A    between atoms: _248  and  _250
REMARK  101  A    between atoms: _250  and  _251
REMARK  102  A    between atoms: _250  and  _253
REMARK  103  A    between atoms: _253  and  _254
REMARK  104  A    between atoms: _257  and  _259
REMARK  105  A    between atoms: _259  and  _260
REMARK  106  A    between atoms: _259  and  _262
REMARK  107  A    between atoms: _262  and  _263
REMARK  108  A    between atoms: _266  and  _268
REMARK  109  A    between atoms: _268  and  _269
REMARK  110  A    between atoms: _268  and  _271
REMARK  111  A    between atoms: _271  and  _272
REMARK  112  A    between atoms: _275  and  _277
REMARK  113  A    between atoms: _277  and  _278
REMARK  114  A    between atoms: _280  and  _282
REMARK  115  A    between atoms: _282  and  _283
REMARK  116  A    between atoms: _286  and  _288
REMARK  117  A    between atoms: _288  and  _289
REMARK  118  A    between atoms: _288  and  _291
REMARK  119  A    between atoms: _291  and  _292
REMARK  120  A    between atoms: _295  and  _297
REMARK  121  A    between atoms: _297  and  _298
REMARK  122  A    between atoms: _297  and  _300
REMARK  123  A    between atoms: _300  and  _301
REMARK  124  A    between atoms: _304  and  _306
REMARK  125  A    between atoms: _306  and  _307
REMARK  126  A    between atoms: _306  and  _309
REMARK  127  A    between atoms: _309  and  _310
REMARK  128  A    between atoms: _313  and  _315
REMARK  129  A    between atoms: _315  and  _316
REMARK  130  A    between atoms: _315  and  _318
REMARK  131  A    between atoms: _321  and  _323
REMARK  132  A    between atoms: _323  and  _324
REMARK  133  A    between atoms: _323  and  _326
REMARK  134  A    between atoms: _326  and  _327
REMARK  135  A    between atoms: _327  and  _328
REMARK  136  A    between atoms: _328  and  _329
REMARK  137  A    between atoms: _329  and  _330
REMARK  138  A    between atoms: _334  and  _336
REMARK  139  A    between atoms: _336  and  _337
REMARK  140  A    between atoms: _336  and  _339
REMARK  141  A    between atoms: _339  and  _340
REMARK  142  A    between atoms: _340  and  _341
REMARK  143  A    between atoms: _343  and  _345
REMARK  144  A    between atoms: _345  and  _346
REMARK  145  A    between atoms: _345  and  _348
REMARK  146  A    between atoms: _348  and  _349
REMARK  147  A    between atoms: _352  and  _354
REMARK  148  A    between atoms: _354  and  _355
REMARK  149  A    between atoms: _357  and  _359
REMARK  150  A    between atoms: _359  and  _360
REMARK  151  A    between atoms: _362  and  _364
REMARK  152  A    between atoms: _364  and  _365
REMARK  153  A    between atoms: _364  and  _367
REMARK  154  A    between atoms: _367  and  _368
REMARK  155  A    between atoms: _371  and  _373
REMARK  156  A    between atoms: _373  and  _374
REMARK  157  A    between atoms: _376  and  _378
REMARK  158  A    between atoms: _378  and  _379
REMARK  159  A    between atoms: _381  and  _383
REMARK  160  A    between atoms: _383  and  _384
REMARK  161  A    between atoms: _383  and  _386
REMARK  162  A    between atoms: _386  and  _387
REMARK  163  A    between atoms: _393  and  _395
REMARK  164  A    between atoms: _395  and  _396
REMARK  165  A    between atoms: _395  and  _398
REMARK  166  A    between atoms: _398  and  _399
REMARK  167  A    between atoms: _402  and  _404
REMARK  168  A    between atoms: _404  and  _405
REMARK  169  A    between atoms: _404  and  _407
REMARK  170  A    between atoms: _410  and  _412
REMARK  171  A    between atoms: _412  and  _413
REMARK  172  A    between atoms: _412  and  _415
REMARK  173  A    between atoms: _415  and  _416
REMARK  174  A    between atoms: _420  and  _421
REMARK  175  A    between atoms: _426  and  _428
REMARK  176  A    between atoms: _428  and  _429
REMARK  177  A    between atoms: _428  and  _431
REMARK  178  A    between atoms: _431  and  _432
REMARK  179  A    between atoms: _436  and  _437
REMARK  180  A    between atoms: _442  and  _444
REMARK  181  A    between atoms: _444  and  _445
REMARK  182  A    between atoms: _444  and  _447
REMARK  183  A    between atoms: _450  and  _452
REMARK  184  A    between atoms: _452  and  _453
REMARK  185  A    between atoms: _452  and  _455
REMARK  186  A    between atoms: _455  and  _456
REMARK  187  A    between atoms: _461  and  _463
REMARK  188  A    between atoms: _463  and  _464
REMARK  189  A    between atoms: _463  and  _466
REMARK  190  A    between atoms: _466  and  _467
REMARK  191  A    between atoms: _470  and  _472
REMARK  192  A    between atoms: _472  and  _473
REMARK  193  A    between atoms: _472  and  _475
REMARK  194  A    between atoms: _475  and  _476
REMARK  195  A    between atoms: _479  and  _481
REMARK  196  A    between atoms: _481  and  _482
REMARK  197  A    between atoms: _484  and  _486
REMARK  198  A    between atoms: _486  and  _487
REMARK  199  A    between atoms: _486  and  _489
REMARK  200  A    between atoms: _489  and  _490
REMARK  201  A    between atoms: _490  and  _491
REMARK  202  A    between atoms: _491  and  _492
REMARK  203  A    between atoms: _501  and  _503
REMARK  204  A    between atoms: _503  and  _504
REMARK  205  A    between atoms: _503  and  _506
REMARK  206  A    between atoms: _506  and  _507
REMARK                            x       y       z     vdW  Elec       q    Type
REMARK                         _______ _______ _______ _____ _____    ______ ____
ROOT
ATOM      1  O   HOH     1      -1.277  11.559  13.521  0.00  0.00    +0.000 OA
ENDROOT
TORSDOF 0
REMARK  Name = ../refined-set-2016/1gno/1gno_pocket.pdb
REMARK  206 active torsions:
REMARK  status: ('A' for Active; 'I' for Inactive)
REMARK    1  A    between atoms: _1  and  _3
REMARK    2  A    between atoms: _3  and  _4
REMARK    3  A    between atoms: _3  and  _6
REMARK    4  A    between atoms: _6  and  _7
REMARK    5  A    between atoms: _7  and  _8
REMARK    6  A    between atoms: _8  and  _9
REMARK    7  A    between atoms: _18  and  _20
REMARK    8  A    between atoms: _20  and  _21
REMARK    9  A    between atoms: _20  and  _23
REMARK   10  A    between atoms: _23  and  _24
REMARK   11  A    between atoms: _27  and  _29
REMARK   12  A    between atoms: _29  and  _30
REMARK   13  A    between atoms: _29  and  _32
REMARK   14  A    between atoms: _32  and  _33
REMARK   15  A    between atoms: _36  and  _38
REMARK   16  A    between atoms: _38  and  _39
REMARK   17  A    between atoms: _38  and  _41
REMARK   18  A    between atoms: _41  and  _42
REMARK   19  A    between atoms: _45  and  _47
REMARK   20  A    between atoms: _47  and  _48
REMARK   21  A    between atoms: _47  and  _50
REMARK   22  A    between atoms: _50  and  _51
REMARK   23  A    between atoms: _54  and  _56
REMARK   24  A    between atoms: _56  and  _57
REMARK   25  A    between atoms: _59  and  _61
REMARK   26  A    between atoms: _61  and  _62
REMARK   27  A    between atoms: _65  and  _67
REMARK   28  A    between atoms: _67  and  _68
REMARK   29  A    between atoms: _67  and  _70
REMARK   30  A    between atoms: _70  and  _71
REMARK   31  A    between atoms: _74  and  _76
REMARK   32  A    between atoms: _76  and  _77
REMARK   33  A    between atoms: _76  and  _79
REMARK   34  A    between atoms: _79  and  _80
REMARK   35  A    between atoms: _83  and  _85
REMARK   36  A    between atoms: _85  and  _86
REMARK   37  A    between atoms: _85  and  _88
REMARK   38  A    between atoms: _88  and  _89
REMARK   39  A    between atoms: _92  and  _94
REMARK   40  A    between atoms: _94  and  _95
REMARK   41  A    between atoms: _94  and  _97
REMARK   42  A    between atoms: _100  and  _102
REMARK   43  A    between atoms: _102  and  _103
REMARK   44  A    between atoms: _102  and  _105
REMARK   45  A    between atoms: _105  and  _106
REMARK   46  A    between atoms: _109  and  _111
REMARK   47  A    between atoms: _111  and  _112
REMARK   48  A    between atoms: _114  and  _116
REMARK   49  A    between atoms: _116  and  _117
REMARK   50  A    between atoms: _119  and  _121
REMARK   51  A    between atoms: _121  and  _122
REMARK   52  A    between atoms: _121  and  _124
REMARK   53  A    between atoms: _124  and  _125
REMARK   54  A    between atoms: _128  and  _130
REMARK   55  A    between atoms: _130  and  _131
REMARK   56  A    between atoms: _133  and  _135
REMARK   57  A    between atoms: _135  and  _136
REMARK   58  A    between atoms: _138  and  _140
REMARK   59  A    between atoms: _140  and  _141
REMARK   60  A    between atoms: _140  and  _143
REMARK   61  A    between atoms: _143  and  _144
REMARK   62  A    between atoms: _147  and  _149
REMARK   63  A    between atoms: _149  and  _150
REMARK   64  A    between atoms: _149  and  _152
REMARK   65  A    between atoms: _152  and  _153
REMARK   66  A    between atoms: _157  and  _158
REMARK   67  A    between atoms: _163  and  _165
REMARK   68  A    between atoms: _165  and  _166
REMARK   69  A    between atoms: _165  and  _168
REMARK   70  A    between atoms: _171  and  _173
REMARK   71  A    between atoms: _173  and  _174
REMARK   72  A    between atoms: _173  and  _176
REMARK   73  A    between atoms: _176  and  _177
REMARK   74  A    between atoms: _182  and  _184
REMARK   75  A    between atoms: _184  and  _185
REMARK   76  A    between atoms: _184  and  _187
REMARK   77  A    between atoms: _187  and  _188
REMARK   78  A    between atoms: _191  and  _193
REMARK   79  A    between atoms: _193  and  _194
REMARK   80  A    between atoms: _193  and  _196
REMARK   81  A    between atoms: _196  and  _197
REMARK   82  A    between atoms: _200  and  _202
REMARK   83  A    between atoms: _202  and  _203
REMARK   84  A    between atoms: _205  and  _207
REMARK   85  A    between atoms: _207  and  _208
REMARK   86  A    between atoms: _207  and  _210
REMARK   87  A    between atoms: _210  and  _211
REMARK   88  A    between atoms: _211  and  _212
REMARK   89  A    between atoms: _212  and  _213
REMARK   90  A    between atoms: _222  and  _224
REMARK   91  A    between atoms: _224  and  _225
REMARK   92  A    between atoms: _224  and  _227
REMARK   93  A    between atoms: _227  and  _228
REMARK   94  A    between atoms: _228  and  _229
REMARK   95  A    between atoms: _229  and  _230
REMARK   96  A    between atoms: _239  and  _241
REMARK   97  A    between atoms: _241  and  _242
REMARK   98  A    between atoms: _241  and  _244
REMARK   99  A    between atoms: _244  and  _245
REMARK  100  A    between atoms: _248  and  _250
REMARK  101  A    between atoms: _250  and  _251
REMARK  102  A    between atoms: _250  and  _253
REMARK  103  A    between atoms: _253  and  _254
REMARK  104  A    between atoms: _257  and  _259
REMARK  105  A    between atoms: _259  and  _260
REMARK  106  A    between atoms: _259  and  _262
REMARK  107  A    between atoms: _262  and  _263
REMARK  108  A    between atoms: _266  and  _268
REMARK  109  A    between atoms: _268  and  _269
REMARK  110  A    between atoms: _268  and  _271
REMARK  111  A    between atoms: _271  and  _272
REMARK  112  A    between atoms: _275  and  _277
REMARK  113  A    between atoms: _277  and  _278
REMARK  114  A    between atoms: _280  and  _282
REMARK  115  A    between atoms: _282  and  _283
REMARK  116  A    between atoms: _286  and  _288
REMARK  117  A    between atoms: _288  and  _289
REMARK  118  A    between atoms: _288  and  _291
REMARK  119  A    between atoms: _291  and  _292
REMARK  120  A    between atoms: _295  and  _297
REMARK  121  A    between atoms: _297  and  _298
REMARK  122  A    between atoms: _297  and  _300
REMARK  123  A    between atoms: _300  and  _301
REMARK  124  A    between atoms: _304  and  _306
REMARK  125  A    between atoms: _306  and  _307
REMARK  126  A    between atoms: _306  and  _309
REMARK  127  A    between atoms: _309  and  _310
REMARK  128  A    between atoms: _313  and  _315
REMARK  129  A    between atoms: _315  and  _316
REMARK  130  A    between atoms: _315  and  _318
REMARK  131  A    between atoms: _321  and  _323
REMARK  132  A    between atoms: _323  and  _324
REMARK  133  A    between atoms: _323  and  _326
REMARK  134  A    between atoms: _326  and  _327
REMARK  135  A    between atoms: _327  and  _328
REMARK  136  A    between atoms: _328  and  _329
REMARK  137  A    between atoms: _329  and  _330
REMARK  138  A    between atoms: _334  and  _336
REMARK  139  A    between atoms: _336  and  _337
REMARK  140  A    between atoms: _336  and  _339
REMARK  141  A    between atoms: _339  and  _340
REMARK  142  A    between atoms: _340  and  _341
REMARK  143  A    between atoms: _343  and  _345
REMARK  144  A    between atoms: _345  and  _346
REMARK  145  A    between atoms: _345  and  _348
REMARK  146  A    between atoms: _348  and  _349
REMARK  147  A    between atoms: _352  and  _354
REMARK  148  A    between atoms: _354  and  _355
REMARK  149  A    between atoms: _357  and  _359
REMARK  150  A    between atoms: _359  and  _360
REMARK  151  A    between atoms: _362  and  _364
REMARK  152  A    between atoms: _364  and  _365
REMARK  153  A    between atoms: _364  and  _367
REMARK  154  A    between atoms: _367  and  _368
REMARK  155  A    between atoms: _371  and  _373
REMARK  156  A    between atoms: _373  and  _374
REMARK  157  A    between atoms: _376  and  _378
REMARK  158  A    between atoms: _378  and  _379
REMARK  159  A    between atoms: _381  and  _383
REMARK  160  A    between atoms: _383  and  _384
REMARK  161  A    between atoms: _383  and  _386
REMARK  162  A    between atoms: _386  and  _387
REMARK  163  A    between atoms: _393  and  _395
REMARK  164  A    between atoms: _395  and  _396
REMARK  165  A    between atoms: _395  and  _398
REMARK  166  A    between atoms: _398  and  _399
REMARK  167  A    between atoms: _402  and  _404
REMARK  168  A    between atoms: _404  and  _405
REMARK  169  A    between atoms: _404  and  _407
REMARK  170  A    between atoms: _410  and  _412
REMARK  171  A    between atoms: _412  and  _413
REMARK  172  A    between atoms: _412  and  _415
REMARK  173  A    between atoms: _415  and  _416
REMARK  174  A    between atoms: _420  and  _421
REMARK  175  A    between atoms: _426  and  _428
REMARK  176  A    between atoms: _428  and  _429
REMARK  177  A    between atoms: _428  and  _431
REMARK  178  A    between atoms: _431  and  _432
REMARK  179  A    between atoms: _436  and  _437
REMARK  180  A    between atoms: _442  and  _444
REMARK  181  A    between atoms: _444  and  _445
REMARK  182  A    between atoms: _444  and  _447
REMARK  183  A    between atoms: _450  and  _452
REMARK  184  A    between atoms: _452  and  _453
REMARK  185  A    between atoms: _452  and  _455
REMARK  186  A    between atoms: _455  and  _456
REMARK  187  A    between atoms: _461  and  _463
REMARK  188  A    between atoms: _463  and  _464
REMARK  189  A    between atoms: _463  and  _466
REMARK  190  A    between atoms: _466  and  _467
REMARK  191  A    between atoms: _470  and  _472
REMARK  192  A    between atoms: _472  and  _473
REMARK  193  A    between atoms: _472  and  _475
REMARK  194  A    between atoms: _475  and  _476
REMARK  195  A    between atoms: _479  and  _481
REMARK  196  A    between atoms: _481  and  _482
REMARK  197  A    between atoms: _484  and  _486
REMARK  198  A    between atoms: _486  and  _487
REMARK  199  A    between atoms: _486  and  _489
REMARK  200  A    between atoms: _489  and  _490
REMARK  201  A    between atoms: _490  and  _491
REMARK  202  A    between atoms: _491  and  _492
REMARK  203  A    between atoms: _501  and  _503
REMARK  204  A    between atoms: _503  and  _504
REMARK  205  A    between atoms: _503  and  _506
REMARK  206  A    between atoms: _506  and  _507
REMARK                            x       y       z     vdW  Elec       q    Type
REMARK                         _______ _______ _______ _____ _____    ______ ____
ROOT
ATOM      1  O   HOH     1     -10.383   6.973  29.946  0.00  0.00    +0.000 OA
ENDROOT
TORSDOF 0
REMARK  Name = ../refined-set-2016/1gno/1gno_pocket.pdb
REMARK  206 active torsions:
REMARK  status: ('A' for Active; 'I' for Inactive)
REMARK    1  A    between atoms: _1  and  _3
REMARK    2  A    between atoms: _3  and  _4
REMARK    3  A    between atoms: _3  and  _6
REMARK    4  A    between atoms: _6  and  _7
REMARK    5  A    between atoms: _7  and  _8
REMARK    6  A    between atoms: _8  and  _9
REMARK    7  A    between atoms: _18  and  _20
REMARK    8  A    between atoms: _20  and  _21
REMARK    9  A    between atoms: _20  and  _23
REMARK   10  A    between atoms: _23  and  _24
REMARK   11  A    between atoms: _27  and  _29
REMARK   12  A    between atoms: _29  and  _30
REMARK   13  A    between atoms: _29  and  _32
REMARK   14  A    between atoms: _32  and  _33
REMARK   15  A    between atoms: _36  and  _38
REMARK   16  A    between atoms: _38  and  _39
REMARK   17  A    between atoms: _38  and  _41
REMARK   18  A    between atoms: _41  and  _42
REMARK   19  A    between atoms: _45  and  _47
REMARK   20  A    between atoms: _47  and  _48
REMARK   21  A    between atoms: _47  and  _50
REMARK   22  A    between atoms: _50  and  _51
REMARK   23  A    between atoms: _54  and  _56
REMARK   24  A    between atoms: _56  and  _57
REMARK   25  A    between atoms: _59  and  _61
REMARK   26  A    between atoms: _61  and  _62
REMARK   27  A    between atoms: _65  and  _67
REMARK   28  A    between atoms: _67  and  _68
REMARK   29  A    between atoms: _67  and  _70
REMARK   30  A    between atoms: _70  and  _71
REMARK   31  A    between atoms: _74  and  _76
REMARK   32  A    between atoms: _76  and  _77
REMARK   33  A    between atoms: _76  and  _79
REMARK   34  A    between atoms: _79  and  _80
REMARK   35  A    between atoms: _83  and  _85
REMARK   36  A    between atoms: _85  and  _86
REMARK   37  A    between atoms: _85  and  _88
REMARK   38  A    between atoms: _88  and  _89
REMARK   39  A    between atoms: _92  and  _94
REMARK   40  A    between atoms: _94  and  _95
REMARK   41  A    between atoms: _94  and  _97
REMARK   42  A    between atoms: _100  and  _102
REMARK   43  A    between atoms: _102  and  _103
REMARK   44  A    between atoms: _102  and  _105
REMARK   45  A    between atoms: _105  and  _106
REMARK   46  A    between atoms: _109  and  _111
REMARK   47  A    between atoms: _111  and  _112
REMARK   48  A    between atoms: _114  and  _116
REMARK   49  A    between atoms: _116  and  _117
REMARK   50  A    between atoms: _119  and  _121
REMARK   51  A    between atoms: _121  and  _122
REMARK   52  A    between atoms: _121  and  _124
REMARK   53  A    between atoms: _124  and  _125
REMARK   54  A    between atoms: _128  and  _130
REMARK   55  A    between atoms: _130  and  _131
REMARK   56  A    between atoms: _133  and  _135
REMARK   57  A    between atoms: _135  and  _136
REMARK   58  A    between atoms: _138  and  _140
REMARK   59  A    between atoms: _140  and  _141
REMARK   60  A    between atoms: _140  and  _143
REMARK   61  A    between atoms: _143  and  _144
REMARK   62  A    between atoms: _147  and  _149
REMARK   63  A    between atoms: _149  and  _150
REMARK   64  A    between atoms: _149  and  _152
REMARK   65  A    between atoms: _152  and  _153
REMARK   66  A    between atoms: _157  and  _158
REMARK   67  A    between atoms: _163  and  _165
REMARK   68  A    between atoms: _165  and  _166
REMARK   69  A    between atoms: _165  and  _168
REMARK   70  A    between atoms: _171  and  _173
REMARK   71  A    between atoms: _173  and  _174
REMARK   72  A    between atoms: _173  and  _176
REMARK   73  A    between atoms: _176  and  _177
REMARK   74  A    between atoms: _182  and  _184
REMARK   75  A    between atoms: _184  and  _185
REMARK   76  A    between atoms: _184  and  _187
REMARK   77  A    between atoms: _187  and  _188
REMARK   78  A    between atoms: _191  and  _193
REMARK   79  A    between atoms: _193  and  _194
REMARK   80  A    between atoms: _193  and  _196
REMARK   81  A    between atoms: _196  and  _197
REMARK   82  A    between atoms: _200  and  _202
REMARK   83  A    between atoms: _202  and  _203
REMARK   84  A    between atoms: _205  and  _207
REMARK   85  A    between atoms: _207  and  _208
REMARK   86  A    between atoms: _207  and  _210
REMARK   87  A    between atoms: _210  and  _211
REMARK   88  A    between atoms: _211  and  _212
REMARK   89  A    between atoms: _212  and  _213
REMARK   90  A    between atoms: _222  and  _224
REMARK   91  A    between atoms: _224  and  _225
REMARK   92  A    between atoms: _224  and  _227
REMARK   93  A    between atoms: _227  and  _228
REMARK   94  A    between atoms: _228  and  _229
REMARK   95  A    between atoms: _229  and  _230
REMARK   96  A    between atoms: _239  and  _241
REMARK   97  A    between atoms: _241  and  _242
REMARK   98  A    between atoms: _241  and  _244
REMARK   99  A    between atoms: _244  and  _245
REMARK  100  A    between atoms: _248  and  _250
REMARK  101  A    between atoms: _250  and  _251
REMARK  102  A    between atoms: _250  and  _253
REMARK  103  A    between atoms: _253  and  _254
REMARK  104  A    between atoms: _257  and  _259
REMARK  105  A    between atoms: _259  and  _260
REMARK  106  A    between atoms: _259  and  _262
REMARK  107  A    between atoms: _262  and  _263
REMARK  108  A    between atoms: _266  and  _268
REMARK  109  A    between atoms: _268  and  _269
REMARK  110  A    between atoms: _268  and  _271
REMARK  111  A    between atoms: _271  and  _272
REMARK  112  A    between atoms: _275  and  _277
REMARK  113  A    between atoms: _277  and  _278
REMARK  114  A    between atoms: _280  and  _282
REMARK  115  A    between atoms: _282  and  _283
REMARK  116  A    between atoms: _286  and  _288
REMARK  117  A    between atoms: _288  and  _289
REMARK  118  A    between atoms: _288  and  _291
REMARK  119  A    between atoms: _291  and  _292
REMARK  120  A    between atoms: _295  and  _297
REMARK  121  A    between atoms: _297  and  _298
REMARK  122  A    between atoms: _297  and  _300
REMARK  123  A    between atoms: _300  and  _301
REMARK  124  A    between atoms: _304  and  _306
REMARK  125  A    between atoms: _306  and  _307
REMARK  126  A    between atoms: _306  and  _309
REMARK  127  A    between atoms: _309  and  _310
REMARK  128  A    between atoms: _313  and  _315
REMARK  129  A    between atoms: _315  and  _316
REMARK  130  A    between atoms: _315  and  _318
REMARK  131  A    between atoms: _321  and  _323
REMARK  132  A    between atoms: _323  and  _324
REMARK  133  A    between atoms: _323  and  _326
REMARK  134  A    between atoms: _326  and  _327
REMARK  135  A    between atoms: _327  and  _328
REMARK  136  A    between atoms: _328  and  _329
REMARK  137  A    between atoms: _329  and  _330
REMARK  138  A    between atoms: _334  and  _336
REMARK  139  A    between atoms: _336  and  _337
REMARK  140  A    between atoms: _336  and  _339
REMARK  141  A    between atoms: _339  and  _340
REMARK  142  A    between atoms: _340  and  _341
REMARK  143  A    between atoms: _343  and  _345
REMARK  144  A    between atoms: _345  and  _346
REMARK  145  A    between atoms: _345  and  _348
REMARK  146  A    between atoms: _348  and  _349
REMARK  147  A    between atoms: _352  and  _354
REMARK  148  A    between atoms: _354  and  _355
REMARK  149  A    between atoms: _357  and  _359
REMARK  150  A    between atoms: _359  and  _360
REMARK  151  A    between atoms: _362  and  _364
REMARK  152  A    between atoms: _364  and  _365
REMARK  153  A    between atoms: _364  and  _367
REMARK  154  A    between atoms: _367  and  _368
REMARK  155  A    between atoms: _371  and  _373
REMARK  156  A    between atoms: _373  and  _374
REMARK  157  A    between atoms: _376  and  _378
REMARK  158  A    between atoms: _378  and  _379
REMARK  159  A    between atoms: _381  and  _383
REMARK  160  A    between atoms: _383  and  _384
REMARK  161  A    between atoms: _383  and  _386
REMARK  162  A    between atoms: _386  and  _387
REMARK  163  A    between atoms: _393  and  _395
REMARK  164  A    between atoms: _395  and  _396
REMARK  165  A    between atoms: _395  and  _398
REMARK  166  A    between atoms: _398  and  _399
REMARK  167  A    between atoms: _402  and  _404
REMARK  168  A    between atoms: _404  and  _405
REMARK  169  A    between atoms: _404  and  _407
REMARK  170  A    between atoms: _410  and  _412
REMARK  171  A    between atoms: _412  and  _413
REMARK  172  A    between atoms: _412  and  _415
REMARK  173  A    between atoms: _415  and  _416
REMARK  174  A    between atoms: _420  and  _421
REMARK  175  A    between atoms: _426  and  _428
REMARK  176  A    between atoms: _428  and  _429
REMARK  177  A    between atoms: _428  and  _431
REMARK  178  A    between atoms: _431  and  _432
REMARK  179  A    between atoms: _436  and  _437
REMARK  180  A    between atoms: _442  and  _444
REMARK  181  A    between atoms: _444  and  _445
REMARK  182  A    between atoms: _444  and  _447
REMARK  183  A    between atoms: _450  and  _452
REMARK  184  A    between atoms: _452  and  _453
REMARK  185  A    between atoms: _452  and  _455
REMARK  186  A    between atoms: _455  and  _456
REMARK  187  A    between atoms: _461  and  _463
REMARK  188  A    between atoms: _463  and  _464
REMARK  189  A    between atoms: _463  and  _466
REMARK  190  A    between atoms: _466  and  _467
REMARK  191  A    between atoms: _470  and  _472
REMARK  192  A    between atoms: _472  and  _473
REMARK  193  A    between atoms: _472  and  _475
REMARK  194  A    between atoms: _475  and  _476
REMARK  195  A    between atoms: _479  and  _481
REMARK  196  A    between atoms: _481  and  _482
REMARK  197  A    between atoms: _484  and  _486
REMARK  198  A    between atoms: _486  and  _487
REMARK  199  A    between atoms: _486  and  _489
REMARK  200  A    between atoms: _489  and  _490
REMARK  201  A    between atoms: _490  and  _491
REMARK  202  A    between atoms: _491  and  _492
REMARK  203  A    between atoms: _501  and  _503
REMARK  204  A    between atoms: _503  and  _504
REMARK  205  A    between atoms: _503  and  _506
REMARK  206  A    between atoms: _506  and  _507
REMARK                            x       y       z     vdW  Elec       q    Type
REMARK                         _______ _______ _______ _____ _____    ______ ____
ROOT
ATOM      1  O   HOH     1      -3.449  15.255  16.412  0.00  0.00    +0.000 OA
ENDROOT
TORSDOF 0
REMARK  Name = ../refined-set-2016/1gno/1gno_pocket.pdb
REMARK  206 active torsions:
REMARK  status: ('A' for Active; 'I' for Inactive)
REMARK    1  A    between atoms: _1  and  _3
REMARK    2  A    between atoms: _3  and  _4
REMARK    3  A    between atoms: _3  and  _6
REMARK    4  A    between atoms: _6  and  _7
REMARK    5  A    between atoms: _7  and  _8
REMARK    6  A    between atoms: _8  and  _9
REMARK    7  A    between atoms: _18  and  _20
REMARK    8  A    between atoms: _20  and  _21
REMARK    9  A    between atoms: _20  and  _23
REMARK   10  A    between atoms: _23  and  _24
REMARK   11  A    between atoms: _27  and  _29
REMARK   12  A    between atoms: _29  and  _30
REMARK   13  A    between atoms: _29  and  _32
REMARK   14  A    between atoms: _32  and  _33
REMARK   15  A    between atoms: _36  and  _38
REMARK   16  A    between atoms: _38  and  _39
REMARK   17  A    between atoms: _38  and  _41
REMARK   18  A    between atoms: _41  and  _42
REMARK   19  A    between atoms: _45  and  _47
REMARK   20  A    between atoms: _47  and  _48
REMARK   21  A    between atoms: _47  and  _50
REMARK   22  A    between atoms: _50  and  _51
REMARK   23  A    between atoms: _54  and  _56
REMARK   24  A    between atoms: _56  and  _57
REMARK   25  A    between atoms: _59  and  _61
REMARK   26  A    between atoms: _61  and  _62
REMARK   27  A    between atoms: _65  and  _67
REMARK   28  A    between atoms: _67  and  _68
REMARK   29  A    between atoms: _67  and  _70
REMARK   30  A    between atoms: _70  and  _71
REMARK   31  A    between atoms: _74  and  _76
REMARK   32  A    between atoms: _76  and  _77
REMARK   33  A    between atoms: _76  and  _79
REMARK   34  A    between atoms: _79  and  _80
REMARK   35  A    between atoms: _83  and  _85
REMARK   36  A    between atoms: _85  and  _86
REMARK   37  A    between atoms: _85  and  _88
REMARK   38  A    between atoms: _88  and  _89
REMARK   39  A    between atoms: _92  and  _94
REMARK   40  A    between atoms: _94  and  _95
REMARK   41  A    between atoms: _94  and  _97
REMARK   42  A    between atoms: _100  and  _102
REMARK   43  A    between atoms: _102  and  _103
REMARK   44  A    between atoms: _102  and  _105
REMARK   45  A    between atoms: _105  and  _106
REMARK   46  A    between atoms: _109  and  _111
REMARK   47  A    between atoms: _111  and  _112
REMARK   48  A    between atoms: _114  and  _116
REMARK   49  A    between atoms: _116  and  _117
REMARK   50  A    between atoms: _119  and  _121
REMARK   51  A    between atoms: _121  and  _122
REMARK   52  A    between atoms: _121  and  _124
REMARK   53  A    between atoms: _124  and  _125
REMARK   54  A    between atoms: _128  and  _130
REMARK   55  A    between atoms: _130  and  _131
REMARK   56  A    between atoms: _133  and  _135
REMARK   57  A    between atoms: _135  and  _136
REMARK   58  A    between atoms: _138  and  _140
REMARK   59  A    between atoms: _140  and  _141
REMARK   60  A    between atoms: _140  and  _143
REMARK   61  A    between atoms: _143  and  _144
REMARK   62  A    between atoms: _147  and  _149
REMARK   63  A    between atoms: _149  and  _150
REMARK   64  A    between atoms: _149  and  _152
REMARK   65  A    between atoms: _152  and  _153
REMARK   66  A    between atoms: _157  and  _158
REMARK   67  A    between atoms: _163  and  _165
REMARK   68  A    between atoms: _165  and  _166
REMARK   69  A    between atoms: _165  and  _168
REMARK   70  A    between atoms: _171  and  _173
REMARK   71  A    between atoms: _173  and  _174
REMARK   72  A    between atoms: _173  and  _176
REMARK   73  A    between atoms: _176  and  _177
REMARK   74  A    between atoms: _182  and  _184
REMARK   75  A    between atoms: _184  and  _185
REMARK   76  A    between atoms: _184  and  _187
REMARK   77  A    between atoms: _187  and  _188
REMARK   78  A    between atoms: _191  and  _193
REMARK   79  A    between atoms: _193  and  _194
REMARK   80  A    between atoms: _193  and  _196
REMARK   81  A    between atoms: _196  and  _197
REMARK   82  A    between atoms: _200  and  _202
REMARK   83  A    between atoms: _202  and  _203
REMARK   84  A    between atoms: _205  and  _207
REMARK   85  A    between atoms: _207  and  _208
REMARK   86  A    between atoms: _207  and  _210
REMARK   87  A    between atoms: _210  and  _211
REMARK   88  A    between atoms: _211  and  _212
REMARK   89  A    between atoms: _212  and  _213
REMARK   90  A    between atoms: _222  and  _224
REMARK   91  A    between atoms: _224  and  _225
REMARK   92  A    between atoms: _224  and  _227
REMARK   93  A    between atoms: _227  and  _228
REMARK   94  A    between atoms: _228  and  _229
REMARK   95  A    between atoms: _229  and  _230
REMARK   96  A    between atoms: _239  and  _241
REMARK   97  A    between atoms: _241  and  _242
REMARK   98  A    between atoms: _241  and  _244
REMARK   99  A    between atoms: _244  and  _245
REMARK  100  A    between atoms: _248  and  _250
REMARK  101  A    between atoms: _250  and  _251
REMARK  102  A    between atoms: _250  and  _253
REMARK  103  A    between atoms: _253  and  _254
REMARK  104  A    between atoms: _257  and  _259
REMARK  105  A    between atoms: _259  and  _260
REMARK  106  A    between atoms: _259  and  _262
REMARK  107  A    between atoms: _262  and  _263
REMARK  108  A    between atoms: _266  and  _268
REMARK  109  A    between atoms: _268  and  _269
REMARK  110  A    between atoms: _268  and  _271
REMARK  111  A    between atoms: _271  and  _272
REMARK  112  A    between atoms: _275  and  _277
REMARK  113  A    between atoms: _277  and  _278
REMARK  114  A    between atoms: _280  and  _282
REMARK  115  A    between atoms: _282  and  _283
REMARK  116  A    between atoms: _286  and  _288
REMARK  117  A    between atoms: _288  and  _289
REMARK  118  A    between atoms: _288  and  _291
REMARK  119  A    between atoms: _291  and  _292
REMARK  120  A    between atoms: _295  and  _297
REMARK  121  A    between atoms: _297  and  _298
REMARK  122  A    between atoms: _297  and  _300
REMARK  123  A    between atoms: _300  and  _301
REMARK  124  A    between atoms: _304  and  _306
REMARK  125  A    between atoms: _306  and  _307
REMARK  126  A    between atoms: _306  and  _309
REMARK  127  A    between atoms: _309  and  _310
REMARK  128  A    between atoms: _313  and  _315
REMARK  129  A    between atoms: _315  and  _316
REMARK  130  A    between atoms: _315  and  _318
REMARK  131  A    between atoms: _321  and  _323
REMARK  132  A    between atoms: _323  and  _324
REMARK  133  A    between atoms: _323  and  _326
REMARK  134  A    between atoms: _326  and  _327
REMARK  135  A    between atoms: _327  and  _328
REMARK  136  A    between atoms: _328  and  _329
REMARK  137  A    between atoms: _329  and  _330
REMARK  138  A    between atoms: _334  and  _336
REMARK  139  A    between atoms: _336  and  _337
REMARK  140  A    between atoms: _336  and  _339
REMARK  141  A    between atoms: _339  and  _340
REMARK  142  A    between atoms: _340  and  _341
REMARK  143  A    between atoms: _343  and  _345
REMARK  144  A    between atoms: _345  and  _346
REMARK  145  A    between atoms: _345  and  _348
REMARK  146  A    between atoms: _348  and  _349
REMARK  147  A    between atoms: _352  and  _354
REMARK  148  A    between atoms: _354  and  _355
REMARK  149  A    between atoms: _357  and  _359
REMARK  150  A    between atoms: _359  and  _360
REMARK  151  A    between atoms: _362  and  _364
REMARK  152  A    between atoms: _364  and  _365
REMARK  153  A    between atoms: _364  and  _367
REMARK  154  A    between atoms: _367  and  _368
REMARK  155  A    between atoms: _371  and  _373
REMARK  156  A    between atoms: _373  and  _374
REMARK  157  A    between atoms: _376  and  _378
REMARK  158  A    between atoms: _378  and  _379
REMARK  159  A    between atoms: _381  and  _383
REMARK  160  A    between atoms: _383  and  _384
REMARK  161  A    between atoms: _383  and  _386
REMARK  162  A    between atoms: _386  and  _387
REMARK  163  A    between atoms: _393  and  _395
REMARK  164  A    between atoms: _395  and  _396
REMARK  165  A    between atoms: _395  and  _398
REMARK  166  A    between atoms: _398  and  _399
REMARK  167  A    between atoms: _402  and  _404
REMARK  168  A    between atoms: _404  and  _405
REMARK  169  A    between atoms: _404  and  _407
REMARK  170  A    between atoms: _410  and  _412
REMARK  171  A    between atoms: _412  and  _413
REMARK  172  A    between atoms: _412  and  _415
REMARK  173  A    between atoms: _415  and  _416
REMARK  174  A    between atoms: _420  and  _421
REMARK  175  A    between atoms: _426  and  _428
REMARK  176  A    between atoms: _428  and  _429
REMARK  177  A    between atoms: _428  and  _431
REMARK  178  A    between atoms: _431  and  _432
REMARK  179  A    between atoms: _436  and  _437
REMARK  180  A    between atoms: _442  and  _444
REMARK  181  A    between atoms: _444  and  _445
REMARK  182  A    between atoms: _444  and  _447
REMARK  183  A    between atoms: _450  and  _452
REMARK  184  A    between atoms: _452  and  _453
REMARK  185  A    between atoms: _452  and  _455
REMARK  186  A    between atoms: _455  and  _456
REMARK  187  A    between atoms: _461  and  _463
REMARK  188  A    between atoms: _463  and  _464
REMARK  189  A    between atoms: _463  and  _466
REMARK  190  A    between atoms: _466  and  _467
REMARK  191  A    between atoms: _470  and  _472
REMARK  192  A    between atoms: _472  and  _473
REMARK  193  A    between atoms: _472  and  _475
REMARK  194  A    between atoms: _475  and  _476
REMARK  195  A    between atoms: _479  and  _481
REMARK  196  A    between atoms: _481  and  _482
REMARK  197  A    between atoms: _484  and  _486
REMARK  198  A    between atoms: _486  and  _487
REMARK  199  A    between atoms: _486  and  _489
REMARK  200  A    between atoms: _489  and  _490
REMARK  201  A    between atoms: _490  and  _491
REMARK  202  A    between atoms: _491  and  _492
REMARK  203  A    between atoms: _501  and  _503
REMARK  204  A    between atoms: _503  and  _504
REMARK  205  A    between atoms: _503  and  _506
REMARK  206  A    between atoms: _506  and  _507
REMARK                            x       y       z     vdW  Elec       q    Type
REMARK                         _______ _______ _______ _____ _____    ______ ____
ROOT
ATOM      1  O   HOH     1      -9.309  23.710  15.959  0.00  0.00    +0.000 OA
ENDROOT
TORSDOF 0
