REMARK  Name = ../refined-set-2016/3qfd/3qfd_pocket.pdb
REMARK  314 active torsions:
REMARK  status: ('A' for Active; 'I' for Inactive)
REMARK    1  A    between atoms: _1  and  _3
REMARK    2  A    between atoms: _3  and  _4
REMARK    3  A    between atoms: _3  and  _6
REMARK    4  A    between atoms: _6  and  _7
REMARK    5  A    between atoms: _7  and  _8
REMARK    6  A    between atoms: _10  and  _12
REMARK    7  A    between atoms: _12  and  _13
REMARK    8  A    between atoms: _12  and  _15
REMARK    9  A    between atoms: _15  and  _16
REMARK   10  A    between atoms: _16  and  _17
REMARK   11  A    between atoms: _17  and  _18
REMARK   12  A    between atoms: _27  and  _29
REMARK   13  A    between atoms: _29  and  _30
REMARK   14  A    between atoms: _29  and  _32
REMARK   15  A    between atoms: _32  and  _33
REMARK   16  A    between atoms: _38  and  _39
REMARK   17  A    between atoms: _41  and  _43
REMARK   18  A    between atoms: _43  and  _44
REMARK   19  A    between atoms: _43  and  _46
REMARK   20  A    between atoms: _46  and  _47
REMARK   21  A    between atoms: _53  and  _55
REMARK   22  A    between atoms: _55  and  _56
REMARK   23  A    between atoms: _55  and  _58
REMARK   24  A    between atoms: _58  and  _59
REMARK   25  A    between atoms: _65  and  _67
REMARK   26  A    between atoms: _67  and  _68
REMARK   27  A    between atoms: _71  and  _73
REMARK   28  A    between atoms: _73  and  _74
REMARK   29  A    between atoms: _73  and  _76
REMARK   30  A    between atoms: _79  and  _81
REMARK   31  A    between atoms: _81  and  _82
REMARK   32  A    between atoms: _84  and  _86
REMARK   33  A    between atoms: _86  and  _87
REMARK   34  A    between atoms: _86  and  _89
REMARK   35  A    between atoms: _92  and  _94
REMARK   36  A    between atoms: _94  and  _95
REMARK   37  A    between atoms: _94  and  _97
REMARK   38  A    between atoms: _97  and  _98
REMARK   39  A    between atoms: _104  and  _106
REMARK   40  A    between atoms: _106  and  _107
REMARK   41  A    between atoms: _106  and  _109
REMARK   42  A    between atoms: _112  and  _114
REMARK   43  A    between atoms: _114  and  _115
REMARK   44  A    between atoms: _114  and  _117
REMARK   45  A    between atoms: _117  and  _118
REMARK   46  A    between atoms: _118  and  _119
REMARK   47  A    between atoms: _121  and  _123
REMARK   48  A    between atoms: _123  and  _124
REMARK   49  A    between atoms: _123  and  _126
REMARK   50  A    between atoms: _126  and  _127
REMARK   51  A    between atoms: _130  and  _132
REMARK   52  A    between atoms: _132  and  _133
REMARK   53  A    between atoms: _132  and  _135
REMARK   54  A    between atoms: _135  and  _136
REMARK   55  A    between atoms: _136  and  _137
REMARK   56  A    between atoms: _140  and  _142
REMARK   57  A    between atoms: _142  and  _143
REMARK   58  A    between atoms: _142  and  _145
REMARK   59  A    between atoms: _145  and  _146
REMARK   60  A    between atoms: _151  and  _152
REMARK   61  A    between atoms: _154  and  _156
REMARK   62  A    between atoms: _156  and  _157
REMARK   63  A    between atoms: _159  and  _161
REMARK   64  A    between atoms: _161  and  _162
REMARK   65  A    between atoms: _161  and  _164
REMARK   66  A    between atoms: _164  and  _165
REMARK   67  A    between atoms: _165  and  _166
REMARK   68  A    between atoms: _169  and  _171
REMARK   69  A    between atoms: _171  and  _172
REMARK   70  A    between atoms: _171  and  _174
REMARK   71  A    between atoms: _174  and  _175
REMARK   72  A    between atoms: _178  and  _180
REMARK   73  A    between atoms: _180  and  _181
REMARK   74  A    between atoms: _180  and  _183
REMARK   75  A    between atoms: _183  and  _184
REMARK   76  A    between atoms: _184  and  _185
REMARK   77  A    between atoms: _185  and  _186
REMARK   78  A    between atoms: _195  and  _197
REMARK   79  A    between atoms: _197  and  _198
REMARK   80  A    between atoms: _197  and  _200
REMARK   81  A    between atoms: _200  and  _201
REMARK   82  A    between atoms: _201  and  _202
REMARK   83  A    between atoms: _202  and  _203
REMARK   84  A    between atoms: _203  and  _204
REMARK   85  A    between atoms: _208  and  _210
REMARK   86  A    between atoms: _210  and  _211
REMARK   87  A    between atoms: _210  and  _213
REMARK   88  A    between atoms: _216  and  _218
REMARK   89  A    between atoms: _218  and  _219
REMARK   90  A    between atoms: _222  and  _224
REMARK   91  A    between atoms: _224  and  _225
REMARK   92  A    between atoms: _224  and  _227
REMARK   93  A    between atoms: _227  and  _228
REMARK   94  A    between atoms: _233  and  _235
REMARK   95  A    between atoms: _235  and  _236
REMARK   96  A    between atoms: _235  and  _238
REMARK   97  A    between atoms: _238  and  _239
REMARK   98  A    between atoms: _241  and  _243
REMARK   99  A    between atoms: _243  and  _244
REMARK  100  A    between atoms: _243  and  _246
REMARK  101  A    between atoms: _246  and  _247
REMARK  102  A    between atoms: _247  and  _248
REMARK  103  A    between atoms: _253  and  _255
REMARK  104  A    between atoms: _255  and  _256
REMARK  105  A    between atoms: _255  and  _258
REMARK  106  A    between atoms: _258  and  _259
REMARK  107  A    between atoms: _262  and  _264
REMARK  108  A    between atoms: _264  and  _265
REMARK  109  A    between atoms: _264  and  _267
REMARK  110  A    between atoms: _267  and  _268
REMARK  111  A    between atoms: _273  and  _275
REMARK  112  A    between atoms: _275  and  _276
REMARK  113  A    between atoms: _275  and  _278
REMARK  114  A    between atoms: _278  and  _279
REMARK  115  A    between atoms: _279  and  _280
REMARK  116  A    between atoms: _280  and  _281
REMARK  117  A    between atoms: _290  and  _292
REMARK  118  A    between atoms: _292  and  _293
REMARK  119  A    between atoms: _292  and  _295
REMARK  120  A    between atoms: _298  and  _300
REMARK  121  A    between atoms: _300  and  _301
REMARK  122  A    between atoms: _300  and  _303
REMARK  123  A    between atoms: _303  and  _304
REMARK  124  A    between atoms: _307  and  _309
REMARK  125  A    between atoms: _309  and  _310
REMARK  126  A    between atoms: _309  and  _312
REMARK  127  A    between atoms: _312  and  _313
REMARK  128  A    between atoms: _316  and  _318
REMARK  129  A    between atoms: _318  and  _319
REMARK  130  A    between atoms: _321  and  _323
REMARK  131  A    between atoms: _323  and  _324
REMARK  132  A    between atoms: _323  and  _326
REMARK  133  A    between atoms: _326  and  _327
REMARK  134  A    between atoms: _330  and  _332
REMARK  135  A    between atoms: _332  and  _333
REMARK  136  A    between atoms: _332  and  _335
REMARK  137  A    between atoms: _335  and  _336
REMARK  138  A    between atoms: _339  and  _341
REMARK  139  A    between atoms: _341  and  _342
REMARK  140  A    between atoms: _341  and  _344
REMARK  141  A    between atoms: _344  and  _345
REMARK  142  A    between atoms: _345  and  _346
REMARK  143  A    between atoms: _346  and  _347
REMARK  144  A    between atoms: _356  and  _358
REMARK  145  A    between atoms: _358  and  _359
REMARK  146  A    between atoms: _358  and  _361
REMARK  147  A    between atoms: _361  and  _362
REMARK  148  A    between atoms: _367  and  _368
REMARK  149  A    between atoms: _370  and  _372
REMARK  150  A    between atoms: _372  and  _373
REMARK  151  A    between atoms: _372  and  _375
REMARK  152  A    between atoms: _378  and  _380
REMARK  153  A    between atoms: _380  and  _381
REMARK  154  A    between atoms: _380  and  _383
REMARK  155  A    between atoms: _383  and  _384
REMARK  156  A    between atoms: _384  and  _385
REMARK  157  A    between atoms: _385  and  _386
REMARK  158  A    between atoms: _395  and  _397
REMARK  159  A    between atoms: _397  and  _398
REMARK  160  A    between atoms: _397  and  _400
REMARK  161  A    between atoms: _400  and  _401
REMARK  162  A    between atoms: _406  and  _407
REMARK  163  A    between atoms: _409  and  _411
REMARK  164  A    between atoms: _411  and  _412
REMARK  165  A    between atoms: _414  and  _416
REMARK  166  A    between atoms: _416  and  _417
REMARK  167  A    between atoms: _416  and  _419
REMARK  168  A    between atoms: _419  and  _420
REMARK  169  A    between atoms: _420  and  _723
REMARK  170  A    between atoms: _421  and  _423
REMARK  171  A    between atoms: _423  and  _424
REMARK  172  A    between atoms: _423  and  _426
REMARK  173  A    between atoms: _426  and  _427
REMARK  174  A    between atoms: _432  and  _434
REMARK  175  A    between atoms: _434  and  _435
REMARK  176  A    between atoms: _434  and  _437
REMARK  177  A    between atoms: _437  and  _438
REMARK  178  A    between atoms: _443  and  _444
REMARK  179  A    between atoms: _446  and  _448
REMARK  180  A    between atoms: _448  and  _449
REMARK  181  A    between atoms: _452  and  _454
REMARK  182  A    between atoms: _454  and  _455
REMARK  183  A    between atoms: _454  and  _457
REMARK  184  A    between atoms: _457  and  _458
REMARK  185  A    between atoms: _463  and  _464
REMARK  186  A    between atoms: _466  and  _468
REMARK  187  A    between atoms: _468  and  _469
REMARK  188  A    between atoms: _468  and  _471
REMARK  189  A    between atoms: _471  and  _472
REMARK  190  A    between atoms: _477  and  _478
REMARK  191  A    between atoms: _480  and  _482
REMARK  192  A    between atoms: _482  and  _483
REMARK  193  A    between atoms: _482  and  _485
REMARK  194  A    between atoms: _485  and  _486
REMARK  195  A    between atoms: _489  and  _491
REMARK  196  A    between atoms: _491  and  _492
REMARK  197  A    between atoms: _491  and  _494
REMARK  198  A    between atoms: _494  and  _495
REMARK  199  A    between atoms: _505  and  _507
REMARK  200  A    between atoms: _507  and  _508
REMARK  201  A    between atoms: _511  and  _513
REMARK  202  A    between atoms: _513  and  _514
REMARK  203  A    between atoms: _517  and  _519
REMARK  204  A    between atoms: _519  and  _520
REMARK  205  A    between atoms: _519  and  _522
REMARK  206  A    between atoms: _522  and  _523
REMARK  207  A    between atoms: _523  and  _524
REMARK  208  A    between atoms: _529  and  _531
REMARK  209  A    between atoms: _531  and  _532
REMARK  210  A    between atoms: _531  and  _534
REMARK  211  A    between atoms: _534  and  _535
REMARK  212  A    between atoms: _538  and  _540
REMARK  213  A    between atoms: _540  and  _541
REMARK  214  A    between atoms: _540  and  _543
REMARK  215  A    between atoms: _543  and  _544
REMARK  216  A    between atoms: _547  and  _549
REMARK  217  A    between atoms: _549  and  _550
REMARK  218  A    between atoms: _549  and  _552
REMARK  219  A    between atoms: _552  and  _553
REMARK  220  A    between atoms: _553  and  _554
REMARK  221  A    between atoms: _554  and  _555
REMARK  222  A    between atoms: _555  and  _556
REMARK  223  A    between atoms: _560  and  _562
REMARK  224  A    between atoms: _562  and  _563
REMARK  225  A    between atoms: _562  and  _565
REMARK  226  A    between atoms: _565  and  _566
REMARK  227  A    between atoms: _571  and  _573
REMARK  228  A    between atoms: _573  and  _574
REMARK  229  A    between atoms: _573  and  _576
REMARK  230  A    between atoms: _576  and  _577
REMARK  231  A    between atoms: _577  and  _578
REMARK  232  A    between atoms: _578  and  _579
REMARK  233  A    between atoms: _579  and  _580
REMARK  234  A    between atoms: _584  and  _586
REMARK  235  A    between atoms: _586  and  _587
REMARK  236  A    between atoms: _586  and  _589
REMARK  237  A    between atoms: _589  and  _590
REMARK  238  A    between atoms: _600  and  _602
REMARK  239  A    between atoms: _602  and  _603
REMARK  240  A    between atoms: _602  and  _605
REMARK  241  A    between atoms: _605  and  _606
REMARK  242  A    between atoms: _606  and  _607
REMARK  243  A    between atoms: _610  and  _612
REMARK  244  A    between atoms: _612  and  _613
REMARK  245  A    between atoms: _616  and  _618
REMARK  246  A    between atoms: _618  and  _619
REMARK  247  A    between atoms: _622  and  _624
REMARK  248  A    between atoms: _624  and  _625
REMARK  249  A    between atoms: _624  and  _627
REMARK  250  A    between atoms: _627  and  _628
REMARK  251  A    between atoms: _633  and  _635
REMARK  252  A    between atoms: _635  and  _636
REMARK  253  A    between atoms: _635  and  _638
REMARK  254  A    between atoms: _641  and  _643
REMARK  255  A    between atoms: _643  and  _644
REMARK  256  A    between atoms: _647  and  _649
REMARK  257  A    between atoms: _649  and  _650
REMARK  258  A    between atoms: _649  and  _652
REMARK  259  A    between atoms: _652  and  _653
REMARK  260  A    between atoms: _653  and  _654
REMARK  261  A    between atoms: _659  and  _661
REMARK  262  A    between atoms: _661  and  _662
REMARK  263  A    between atoms: _661  and  _664
REMARK  264  A    between atoms: _664  and  _665
REMARK  265  A    between atoms: _668  and  _670
REMARK  266  A    between atoms: _670  and  _671
REMARK  267  A    between atoms: _670  and  _673
REMARK  268  A    between atoms: _673  and  _674
REMARK  269  A    between atoms: _674  and  _675
REMARK  270  A    between atoms: _675  and  _676
REMARK  271  A    between atoms: _685  and  _687
REMARK  272  A    between atoms: _687  and  _688
REMARK  273  A    between atoms: _687  and  _690
REMARK  274  A    between atoms: _690  and  _691
REMARK  275  A    between atoms: _696  and  _697
REMARK  276  A    between atoms: _699  and  _701
REMARK  277  A    between atoms: _701  and  _702
REMARK  278  A    between atoms: _701  and  _704
REMARK  279  A    between atoms: _704  and  _705
REMARK  280  A    between atoms: _708  and  _710
REMARK  281  A    between atoms: _710  and  _711
REMARK  282  A    between atoms: _710  and  _713
REMARK  283  A    between atoms: _713  and  _714
REMARK  284  A    between atoms: _717  and  _719
REMARK  285  A    between atoms: _719  and  _720
REMARK  286  A    between atoms: _719  and  _722
REMARK  287  A    between atoms: _722  and  _723
REMARK  288  A    between atoms: _724  and  _726
REMARK  289  A    between atoms: _726  and  _727
REMARK  290  A    between atoms: _726  and  _729
REMARK  291  A    between atoms: _732  and  _734
REMARK  292  A    between atoms: _734  and  _735
REMARK  293  A    between atoms: _734  and  _737
REMARK  294  A    between atoms: _737  and  _738
REMARK  295  A    between atoms: _738  and  _739
REMARK  296  A    between atoms: _742  and  _744
REMARK  297  A    between atoms: _744  and  _745
REMARK  298  A    between atoms: _744  and  _747
REMARK  299  A    between atoms: _747  and  _748
REMARK  300  A    between atoms: _758  and  _760
REMARK  301  A    between atoms: _760  and  _761
REMARK  302  A    between atoms: _760  and  _763
REMARK  303  A    between atoms: _763  and  _764
REMARK  304  A    between atoms: _767  and  _769
REMARK  305  A    between atoms: _769  and  _770
REMARK  306  A    between atoms: _769  and  _772
REMARK  307  A    between atoms: _772  and  _773
REMARK  308  A    between atoms: _773  and  _774
REMARK  309  A    between atoms: _774  and  _775
REMARK  310  A    between atoms: _784  and  _786
REMARK  311  A    between atoms: _786  and  _787
REMARK  312  A    between atoms: _786  and  _789
REMARK  313  A    between atoms: _789  and  _790
REMARK  314  A    between atoms: _795  and  _796
REMARK                            x       y       z     vdW  Elec       q    Type
REMARK                         _______ _______ _______ _____ _____    ______ ____
ROOT
ATOM      1  CA  TYR A   3      19.979  -3.620  36.074  0.00  0.00    +0.153 C 
ENDROOT
BRANCH   1   2
ATOM      2  C   TYR A   3      20.341  -2.885  34.791  0.00  0.00    +0.241 C 
ATOM      3  N   PHE A   4      19.935  -1.625  34.688  0.00  0.00    -0.297 N 
ATOM      4  H   PHE A   4      19.449  -1.191  35.498  0.00  0.00    +0.150 HD
ATOM      5  O   TYR A   3      20.900  -3.473  33.891  0.00  0.00    -0.273 OA
BRANCH   3   6
ATOM      6  CA  PHE A   4      20.143  -0.818  33.479  0.00  0.00    +0.153 C 
BRANCH   6   7
ATOM      7  C   PHE A   4      20.872   0.460  33.888  0.00  0.00    +0.241 C 
ATOM      8  O   PHE A   4      20.491   1.125  34.862  0.00  0.00    -0.273 OA
ATOM      9  N   PHE A   5      21.935   0.813  33.165  0.00  0.00    -0.298 N 
ATOM     10  H   PHE A   5      22.189   0.251  32.328  0.00  0.00    +0.150 HD
BRANCH   9  11
ATOM     11  CA  PHE A   5      22.743   1.958  33.517  0.00  0.00    +0.141 C 
BRANCH  11  12
ATOM     12  C   PHE A   5      22.934   2.792  32.260  0.00  0.00    +0.227 C 
ATOM     13  O   PHE A   5      23.304   2.275  31.219  0.00  0.00    -0.286 OA
ENDBRANCH  11  12
BRANCH  11  14
ATOM     14  CB  PHE A   5      24.134   1.514  34.015  0.00  0.00    +0.054 C 
BRANCH  14  15
ATOM     15  CG  PHE A   5      24.077   0.571  35.165  0.00  0.00    -0.020 A 
ATOM     16  CD2 PHE A   5      24.014   1.048  36.443  0.00  0.00    -0.004 A 
ATOM     17  CE2 PHE A   5      23.961   0.173  37.529  0.00  0.00    -0.000 A 
ATOM     18  CZ  PHE A   5      23.915  -1.199  37.290  0.00  0.00    -0.000 A 
ATOM     19  CE1 PHE A   5      23.960  -1.677  35.993  0.00  0.00    -0.000 A 
ATOM     20  CD1 PHE A   5      24.022  -0.811  34.949  0.00  0.00    -0.004 A 
ENDBRANCH  14  15
ENDBRANCH  11  14
ENDBRANCH   9  11
ENDBRANCH   6   7
BRANCH   6  21
ATOM     21  CB  PHE A   4      18.808  -0.427  32.837  0.00  0.00    +0.055 C 
BRANCH  21  22
ATOM     22  CG  PHE A   4      17.940  -1.588  32.478  0.00  0.00    -0.020 A 
ATOM     23  CD2 PHE A   4      17.089  -2.168  33.425  0.00  0.00    -0.004 A 
ATOM     24  CE2 PHE A   4      16.309  -3.259  33.099  0.00  0.00    -0.000 A 
ATOM     25  CZ  PHE A   4      16.314  -3.747  31.800  0.00  0.00    -0.000 A 
ATOM     26  CE1 PHE A   4      17.122  -3.174  30.837  0.00  0.00    -0.000 A 
ATOM     27  CD1 PHE A   4      17.939  -2.088  31.173  0.00  0.00    -0.004 A 
ENDBRANCH  21  22
ENDBRANCH   6  21
ENDBRANCH   3   6
ENDBRANCH   1   2
BRANCH   1  30
ATOM     28  C   ARG A   2      18.255  -5.384  35.974  0.00  0.00    +0.241 C 
ATOM     29  O   ARG A   2      17.379  -4.686  36.512  0.00  0.00    -0.273 OA
ATOM     30  N   TYR A   3      19.517  -4.967  35.768  0.00  0.00    -0.297 N 
ATOM     31  H   TYR A   3      20.200  -5.643  35.369  0.00  0.00    +0.150 HD
BRANCH  28  32
ATOM     32  CA  ARG A   2      17.922  -6.760  35.405  0.00  0.00    +0.149 C 
BRANCH  32  34
ATOM     33  C   MET A   1      17.249  -8.748  36.551  0.00  0.00    +0.238 C 
ATOM     34  N   ARG A   2      17.034  -7.461  36.316  0.00  0.00    -0.297 N 
ATOM     35  H   ARG A   2      16.245  -6.963  36.775  0.00  0.00    +0.150 HD
ATOM     36  O   MET A   1      18.144  -9.367  35.989  0.00  0.00    -0.274 OA
BRANCH  33  37
ATOM     37  CA  MET A   1      16.317  -9.457  37.500  0.00  0.00    +0.146 C 
BRANCH  37  38
ATOM     38  N   MET A   1      15.838 -10.668  36.855  0.00  0.00    -0.238 NA
ATOM     39  H   MET A   1      16.522 -11.384  36.537  0.00  0.00    +0.142 HD
ENDBRANCH  37  38
BRANCH  37  40
ATOM     40  CB  MET A   1      17.012  -9.723  38.871  0.00  0.00    +0.038 C 
BRANCH  40  41
ATOM     41  CG  MET A   1      17.424  -8.428  39.543  0.00  0.00    +0.060 C 
BRANCH  41  42
ATOM     42  SD  MET A   1      17.996  -8.605  41.243  0.00  0.00    -0.139 S 
ATOM     43  CE  MET A   1      19.551  -9.427  41.024  0.00  0.00    +0.069 C 
ENDBRANCH  41  42
ENDBRANCH  40  41
ENDBRANCH  37  40
ENDBRANCH  33  37
ENDBRANCH  32  34
BRANCH  32  44
ATOM     44  CB  ARG A   2      17.245  -6.583  34.046  0.00  0.00    +0.033 C 
BRANCH  44  45
ATOM     45  CG  ARG A   2      16.983  -7.889  33.305  0.00  0.00    +0.045 C 
BRANCH  45  46
ATOM     46  CD  ARG A   2      16.091  -7.786  32.094  0.00  0.00    +0.174 C 
BRANCH  46  47
ATOM     47  NE  ARG A   2      15.510  -9.101  31.766  0.00  0.00    -0.265 N 
ATOM     48  HE  ARG A   2      15.903  -9.928  32.259  0.00  0.00    +0.259 HD
ATOM     49  CZ  ARG A   2      14.521  -9.327  30.889  0.00  0.00    +0.342 C 
ATOM     50  NH2 ARG A   2      14.080 -10.567  30.682  0.00  0.00    -0.292 N 
ATOM     51 HH21 ARG A   2      14.503 -11.363  31.201  0.00  0.00    +0.255 HD
ATOM     52 HH22 ARG A   2      13.313 -10.739  30.001  0.00  0.00    +0.255 HD
ATOM     53  NH1 ARG A   2      13.974  -8.333  30.202  0.00  0.00    -0.292 N 
ATOM     54 HH11 ARG A   2      14.311  -7.359  30.339  0.00  0.00    +0.255 HD
ATOM     55 HH12 ARG A   2      13.208  -8.528  29.526  0.00  0.00    +0.255 HD
ENDBRANCH  46  47
ENDBRANCH  45  46
ENDBRANCH  44  45
ENDBRANCH  32  44
ENDBRANCH  28  32
ENDBRANCH   1  30
BRANCH   1  56
ATOM     56  CB  TYR A   3      21.191  -3.677  37.017  0.00  0.00    +0.055 C 
BRANCH  56  57
ATOM     57  CG  TYR A   3      20.813  -3.974  38.424  0.00  0.00    -0.020 A 
ATOM     58  CD2 TYR A   3      20.455  -2.945  39.301  0.00  0.00    -0.001 A 
ATOM     59  CE2 TYR A   3      20.084  -3.240  40.656  0.00  0.00    +0.036 A 
ATOM     60  CZ  TYR A   3      20.067  -4.531  41.088  0.00  0.00    +0.134 A 
ATOM     61  CE1 TYR A   3      20.427  -5.577  40.229  0.00  0.00    +0.036 A 
ATOM     62  CD1 TYR A   3      20.790  -5.296  38.890  0.00  0.00    -0.001 A 
BRANCH  60  63
ATOM     63  OH  TYR A   3      19.700  -4.759  42.382  0.00  0.00    -0.506 OA
ATOM     64  HH  TYR A   3      20.325  -4.288  42.989  0.00  0.00    +0.292 HD
ENDBRANCH  60  63
ENDBRANCH  56  57
ENDBRANCH   1  56
TORSDOF 24
REMARK  Name = ../refined-set-2016/3qfd/3qfd_pocket.pdb
REMARK  314 active torsions:
REMARK  status: ('A' for Active; 'I' for Inactive)
REMARK    1  A    between atoms: _1  and  _3
REMARK    2  A    between atoms: _3  and  _4
REMARK    3  A    between atoms: _3  and  _6
REMARK    4  A    between atoms: _6  and  _7
REMARK    5  A    between atoms: _7  and  _8
REMARK    6  A    between atoms: _10  and  _12
REMARK    7  A    between atoms: _12  and  _13
REMARK    8  A    between atoms: _12  and  _15
REMARK    9  A    between atoms: _15  and  _16
REMARK   10  A    between atoms: _16  and  _17
REMARK   11  A    between atoms: _17  and  _18
REMARK   12  A    between atoms: _27  and  _29
REMARK   13  A    between atoms: _29  and  _30
REMARK   14  A    between atoms: _29  and  _32
REMARK   15  A    between atoms: _32  and  _33
REMARK   16  A    between atoms: _38  and  _39
REMARK   17  A    between atoms: _41  and  _43
REMARK   18  A    between atoms: _43  and  _44
REMARK   19  A    between atoms: _43  and  _46
REMARK   20  A    between atoms: _46  and  _47
REMARK   21  A    between atoms: _53  and  _55
REMARK   22  A    between atoms: _55  and  _56
REMARK   23  A    between atoms: _55  and  _58
REMARK   24  A    between atoms: _58  and  _59
REMARK   25  A    between atoms: _65  and  _67
REMARK   26  A    between atoms: _67  and  _68
REMARK   27  A    between atoms: _71  and  _73
REMARK   28  A    between atoms: _73  and  _74
REMARK   29  A    between atoms: _73  and  _76
REMARK   30  A    between atoms: _79  and  _81
REMARK   31  A    between atoms: _81  and  _82
REMARK   32  A    between atoms: _84  and  _86
REMARK   33  A    between atoms: _86  and  _87
REMARK   34  A    between atoms: _86  and  _89
REMARK   35  A    between atoms: _92  and  _94
REMARK   36  A    between atoms: _94  and  _95
REMARK   37  A    between atoms: _94  and  _97
REMARK   38  A    between atoms: _97  and  _98
REMARK   39  A    between atoms: _104  and  _106
REMARK   40  A    between atoms: _106  and  _107
REMARK   41  A    between atoms: _106  and  _109
REMARK   42  A    between atoms: _112  and  _114
REMARK   43  A    between atoms: _114  and  _115
REMARK   44  A    between atoms: _114  and  _117
REMARK   45  A    between atoms: _117  and  _118
REMARK   46  A    between atoms: _118  and  _119
REMARK   47  A    between atoms: _121  and  _123
REMARK   48  A    between atoms: _123  and  _124
REMARK   49  A    between atoms: _123  and  _126
REMARK   50  A    between atoms: _126  and  _127
REMARK   51  A    between atoms: _130  and  _132
REMARK   52  A    between atoms: _132  and  _133
REMARK   53  A    between atoms: _132  and  _135
REMARK   54  A    between atoms: _135  and  _136
REMARK   55  A    between atoms: _136  and  _137
REMARK   56  A    between atoms: _140  and  _142
REMARK   57  A    between atoms: _142  and  _143
REMARK   58  A    between atoms: _142  and  _145
REMARK   59  A    between atoms: _145  and  _146
REMARK   60  A    between atoms: _151  and  _152
REMARK   61  A    between atoms: _154  and  _156
REMARK   62  A    between atoms: _156  and  _157
REMARK   63  A    between atoms: _159  and  _161
REMARK   64  A    between atoms: _161  and  _162
REMARK   65  A    between atoms: _161  and  _164
REMARK   66  A    between atoms: _164  and  _165
REMARK   67  A    between atoms: _165  and  _166
REMARK   68  A    between atoms: _169  and  _171
REMARK   69  A    between atoms: _171  and  _172
REMARK   70  A    between atoms: _171  and  _174
REMARK   71  A    between atoms: _174  and  _175
REMARK   72  A    between atoms: _178  and  _180
REMARK   73  A    between atoms: _180  and  _181
REMARK   74  A    between atoms: _180  and  _183
REMARK   75  A    between atoms: _183  and  _184
REMARK   76  A    between atoms: _184  and  _185
REMARK   77  A    between atoms: _185  and  _186
REMARK   78  A    between atoms: _195  and  _197
REMARK   79  A    between atoms: _197  and  _198
REMARK   80  A    between atoms: _197  and  _200
REMARK   81  A    between atoms: _200  and  _201
REMARK   82  A    between atoms: _201  and  _202
REMARK   83  A    between atoms: _202  and  _203
REMARK   84  A    between atoms: _203  and  _204
REMARK   85  A    between atoms: _208  and  _210
REMARK   86  A    between atoms: _210  and  _211
REMARK   87  A    between atoms: _210  and  _213
REMARK   88  A    between atoms: _216  and  _218
REMARK   89  A    between atoms: _218  and  _219
REMARK   90  A    between atoms: _222  and  _224
REMARK   91  A    between atoms: _224  and  _225
REMARK   92  A    between atoms: _224  and  _227
REMARK   93  A    between atoms: _227  and  _228
REMARK   94  A    between atoms: _233  and  _235
REMARK   95  A    between atoms: _235  and  _236
REMARK   96  A    between atoms: _235  and  _238
REMARK   97  A    between atoms: _238  and  _239
REMARK   98  A    between atoms: _241  and  _243
REMARK   99  A    between atoms: _243  and  _244
REMARK  100  A    between atoms: _243  and  _246
REMARK  101  A    between atoms: _246  and  _247
REMARK  102  A    between atoms: _247  and  _248
REMARK  103  A    between atoms: _253  and  _255
REMARK  104  A    between atoms: _255  and  _256
REMARK  105  A    between atoms: _255  and  _258
REMARK  106  A    between atoms: _258  and  _259
REMARK  107  A    between atoms: _262  and  _264
REMARK  108  A    between atoms: _264  and  _265
REMARK  109  A    between atoms: _264  and  _267
REMARK  110  A    between atoms: _267  and  _268
REMARK  111  A    between atoms: _273  and  _275
REMARK  112  A    between atoms: _275  and  _276
REMARK  113  A    between atoms: _275  and  _278
REMARK  114  A    between atoms: _278  and  _279
REMARK  115  A    between atoms: _279  and  _280
REMARK  116  A    between atoms: _280  and  _281
REMARK  117  A    between atoms: _290  and  _292
REMARK  118  A    between atoms: _292  and  _293
REMARK  119  A    between atoms: _292  and  _295
REMARK  120  A    between atoms: _298  and  _300
REMARK  121  A    between atoms: _300  and  _301
REMARK  122  A    between atoms: _300  and  _303
REMARK  123  A    between atoms: _303  and  _304
REMARK  124  A    between atoms: _307  and  _309
REMARK  125  A    between atoms: _309  and  _310
REMARK  126  A    between atoms: _309  and  _312
REMARK  127  A    between atoms: _312  and  _313
REMARK  128  A    between atoms: _316  and  _318
REMARK  129  A    between atoms: _318  and  _319
REMARK  130  A    between atoms: _321  and  _323
REMARK  131  A    between atoms: _323  and  _324
REMARK  132  A    between atoms: _323  and  _326
REMARK  133  A    between atoms: _326  and  _327
REMARK  134  A    between atoms: _330  and  _332
REMARK  135  A    between atoms: _332  and  _333
REMARK  136  A    between atoms: _332  and  _335
REMARK  137  A    between atoms: _335  and  _336
REMARK  138  A    between atoms: _339  and  _341
REMARK  139  A    between atoms: _341  and  _342
REMARK  140  A    between atoms: _341  and  _344
REMARK  141  A    between atoms: _344  and  _345
REMARK  142  A    between atoms: _345  and  _346
REMARK  143  A    between atoms: _346  and  _347
REMARK  144  A    between atoms: _356  and  _358
REMARK  145  A    between atoms: _358  and  _359
REMARK  146  A    between atoms: _358  and  _361
REMARK  147  A    between atoms: _361  and  _362
REMARK  148  A    between atoms: _367  and  _368
REMARK  149  A    between atoms: _370  and  _372
REMARK  150  A    between atoms: _372  and  _373
REMARK  151  A    between atoms: _372  and  _375
REMARK  152  A    between atoms: _378  and  _380
REMARK  153  A    between atoms: _380  and  _381
REMARK  154  A    between atoms: _380  and  _383
REMARK  155  A    between atoms: _383  and  _384
REMARK  156  A    between atoms: _384  and  _385
REMARK  157  A    between atoms: _385  and  _386
REMARK  158  A    between atoms: _395  and  _397
REMARK  159  A    between atoms: _397  and  _398
REMARK  160  A    between atoms: _397  and  _400
REMARK  161  A    between atoms: _400  and  _401
REMARK  162  A    between atoms: _406  and  _407
REMARK  163  A    between atoms: _409  and  _411
REMARK  164  A    between atoms: _411  and  _412
REMARK  165  A    between atoms: _414  and  _416
REMARK  166  A    between atoms: _416  and  _417
REMARK  167  A    between atoms: _416  and  _419
REMARK  168  A    between atoms: _419  and  _420
REMARK  169  A    between atoms: _420  and  _723
REMARK  170  A    between atoms: _421  and  _423
REMARK  171  A    between atoms: _423  and  _424
REMARK  172  A    between atoms: _423  and  _426
REMARK  173  A    between atoms: _426  and  _427
REMARK  174  A    between atoms: _432  and  _434
REMARK  175  A    between atoms: _434  and  _435
REMARK  176  A    between atoms: _434  and  _437
REMARK  177  A    between atoms: _437  and  _438
REMARK  178  A    between atoms: _443  and  _444
REMARK  179  A    between atoms: _446  and  _448
REMARK  180  A    between atoms: _448  and  _449
REMARK  181  A    between atoms: _452  and  _454
REMARK  182  A    between atoms: _454  and  _455
REMARK  183  A    between atoms: _454  and  _457
REMARK  184  A    between atoms: _457  and  _458
REMARK  185  A    between atoms: _463  and  _464
REMARK  186  A    between atoms: _466  and  _468
REMARK  187  A    between atoms: _468  and  _469
REMARK  188  A    between atoms: _468  and  _471
REMARK  189  A    between atoms: _471  and  _472
REMARK  190  A    between atoms: _477  and  _478
REMARK  191  A    between atoms: _480  and  _482
REMARK  192  A    between atoms: _482  and  _483
REMARK  193  A    between atoms: _482  and  _485
REMARK  194  A    between atoms: _485  and  _486
REMARK  195  A    between atoms: _489  and  _491
REMARK  196  A    between atoms: _491  and  _492
REMARK  197  A    between atoms: _491  and  _494
REMARK  198  A    between atoms: _494  and  _495
REMARK  199  A    between atoms: _505  and  _507
REMARK  200  A    between atoms: _507  and  _508
REMARK  201  A    between atoms: _511  and  _513
REMARK  202  A    between atoms: _513  and  _514
REMARK  203  A    between atoms: _517  and  _519
REMARK  204  A    between atoms: _519  and  _520
REMARK  205  A    between atoms: _519  and  _522
REMARK  206  A    between atoms: _522  and  _523
REMARK  207  A    between atoms: _523  and  _524
REMARK  208  A    between atoms: _529  and  _531
REMARK  209  A    between atoms: _531  and  _532
REMARK  210  A    between atoms: _531  and  _534
REMARK  211  A    between atoms: _534  and  _535
REMARK  212  A    between atoms: _538  and  _540
REMARK  213  A    between atoms: _540  and  _541
REMARK  214  A    between atoms: _540  and  _543
REMARK  215  A    between atoms: _543  and  _544
REMARK  216  A    between atoms: _547  and  _549
REMARK  217  A    between atoms: _549  and  _550
REMARK  218  A    between atoms: _549  and  _552
REMARK  219  A    between atoms: _552  and  _553
REMARK  220  A    between atoms: _553  and  _554
REMARK  221  A    between atoms: _554  and  _555
REMARK  222  A    between atoms: _555  and  _556
REMARK  223  A    between atoms: _560  and  _562
REMARK  224  A    between atoms: _562  and  _563
REMARK  225  A    between atoms: _562  and  _565
REMARK  226  A    between atoms: _565  and  _566
REMARK  227  A    between atoms: _571  and  _573
REMARK  228  A    between atoms: _573  and  _574
REMARK  229  A    between atoms: _573  and  _576
REMARK  230  A    between atoms: _576  and  _577
REMARK  231  A    between atoms: _577  and  _578
REMARK  232  A    between atoms: _578  and  _579
REMARK  233  A    between atoms: _579  and  _580
REMARK  234  A    between atoms: _584  and  _586
REMARK  235  A    between atoms: _586  and  _587
REMARK  236  A    between atoms: _586  and  _589
REMARK  237  A    between atoms: _589  and  _590
REMARK  238  A    between atoms: _600  and  _602
REMARK  239  A    between atoms: _602  and  _603
REMARK  240  A    between atoms: _602  and  _605
REMARK  241  A    between atoms: _605  and  _606
REMARK  242  A    between atoms: _606  and  _607
REMARK  243  A    between atoms: _610  and  _612
REMARK  244  A    between atoms: _612  and  _613
REMARK  245  A    between atoms: _616  and  _618
REMARK  246  A    between atoms: _618  and  _619
REMARK  247  A    between atoms: _622  and  _624
REMARK  248  A    between atoms: _624  and  _625
REMARK  249  A    between atoms: _624  and  _627
REMARK  250  A    between atoms: _627  and  _628
REMARK  251  A    between atoms: _633  and  _635
REMARK  252  A    between atoms: _635  and  _636
REMARK  253  A    between atoms: _635  and  _638
REMARK  254  A    between atoms: _641  and  _643
REMARK  255  A    between atoms: _643  and  _644
REMARK  256  A    between atoms: _647  and  _649
REMARK  257  A    between atoms: _649  and  _650
REMARK  258  A    between atoms: _649  and  _652
REMARK  259  A    between atoms: _652  and  _653
REMARK  260  A    between atoms: _653  and  _654
REMARK  261  A    between atoms: _659  and  _661
REMARK  262  A    between atoms: _661  and  _662
REMARK  263  A    between atoms: _661  and  _664
REMARK  264  A    between atoms: _664  and  _665
REMARK  265  A    between atoms: _668  and  _670
REMARK  266  A    between atoms: _670  and  _671
REMARK  267  A    between atoms: _670  and  _673
REMARK  268  A    between atoms: _673  and  _674
REMARK  269  A    between atoms: _674  and  _675
REMARK  270  A    between atoms: _675  and  _676
REMARK  271  A    between atoms: _685  and  _687
REMARK  272  A    between atoms: _687  and  _688
REMARK  273  A    between atoms: _687  and  _690
REMARK  274  A    between atoms: _690  and  _691
REMARK  275  A    between atoms: _696  and  _697
REMARK  276  A    between atoms: _699  and  _701
REMARK  277  A    between atoms: _701  and  _702
REMARK  278  A    between atoms: _701  and  _704
REMARK  279  A    between atoms: _704  and  _705
REMARK  280  A    between atoms: _708  and  _710
REMARK  281  A    between atoms: _710  and  _711
REMARK  282  A    between atoms: _710  and  _713
REMARK  283  A    between atoms: _713  and  _714
REMARK  284  A    between atoms: _717  and  _719
REMARK  285  A    between atoms: _719  and  _720
REMARK  286  A    between atoms: _719  and  _722
REMARK  287  A    between atoms: _722  and  _723
REMARK  288  A    between atoms: _724  and  _726
REMARK  289  A    between atoms: _726  and  _727
REMARK  290  A    between atoms: _726  and  _729
REMARK  291  A    between atoms: _732  and  _734
REMARK  292  A    between atoms: _734  and  _735
REMARK  293  A    between atoms: _734  and  _737
REMARK  294  A    between atoms: _737  and  _738
REMARK  295  A    between atoms: _738  and  _739
REMARK  296  A    between atoms: _742  and  _744
REMARK  297  A    between atoms: _744  and  _745
REMARK  298  A    between atoms: _744  and  _747
REMARK  299  A    between atoms: _747  and  _748
REMARK  300  A    between atoms: _758  and  _760
REMARK  301  A    between atoms: _760  and  _761
REMARK  302  A    between atoms: _760  and  _763
REMARK  303  A    between atoms: _763  and  _764
REMARK  304  A    between atoms: _767  and  _769
REMARK  305  A    between atoms: _769  and  _770
REMARK  306  A    between atoms: _769  and  _772
REMARK  307  A    between atoms: _772  and  _773
REMARK  308  A    between atoms: _773  and  _774
REMARK  309  A    between atoms: _774  and  _775
REMARK  310  A    between atoms: _784  and  _786
REMARK  311  A    between atoms: _786  and  _787
REMARK  312  A    between atoms: _786  and  _789
REMARK  313  A    between atoms: _789  and  _790
REMARK  314  A    between atoms: _795  and  _796
REMARK                            x       y       z     vdW  Elec       q    Type
REMARK                         _______ _______ _______ _____ _____    ______ ____
ROOT
ATOM      1  CA  VAL A   2      17.514   1.455  37.531  0.00  0.00    +0.148 C 
ENDROOT
BRANCH   1   4
ATOM      2  C   ALA A   1      19.345   3.073  37.611  0.00  0.00    +0.238 C 
ATOM      3  O   ALA A   1      18.760   3.759  38.465  0.00  0.00    -0.274 OA
ATOM      4  N   VAL A   2      18.799   2.000  37.056  0.00  0.00    -0.297 N 
ATOM      5  H   VAL A   2      19.289   1.532  36.267  0.00  0.00    +0.150 HD
BRANCH   2   6
ATOM      6  CA  ALA A   1      20.767   3.427  37.193  0.00  0.00    +0.145 C 
ATOM      7  CB  ALA A   1      21.695   2.983  38.283  0.00  0.00    +0.028 C 
BRANCH   6   8
ATOM      8  N   ALA A   1      20.804   4.888  37.060  0.00  0.00    -0.238 NA
ATOM      9  H   ALA A   1      20.564   5.484  37.877  0.00  0.00    +0.142 HD
ENDBRANCH   6   8
ENDBRANCH   2   6
ENDBRANCH   1   4
BRANCH   1  10
ATOM     10  C   VAL A   2      17.609  -0.064  37.643  0.00  0.00    +0.241 C 
ATOM     11  N   GLY A   3      16.829  -0.654  38.533  0.00  0.00    -0.296 N 
ATOM     12  H   GLY A   3      16.213  -0.084  39.148  0.00  0.00    +0.150 HD
ATOM     13  O   VAL A   2      18.358  -0.699  36.906  0.00  0.00    -0.273 OA
BRANCH  11  14
ATOM     14  CA  GLY A   3      16.837  -2.105  38.647  0.00  0.00    +0.163 C 
BRANCH  14  15
ATOM     15  C   GLY A   3      15.409  -2.572  38.586  0.00  0.00    +0.229 C 
ATOM     16  O   GLY A   3      14.525  -1.914  39.145  0.00  0.00    -0.286 OA
ENDBRANCH  14  15
ENDBRANCH  11  14
ENDBRANCH   1  10
BRANCH   1  17
ATOM     17  CB  VAL A   2      16.309   1.827  36.626  0.00  0.00    +0.027 C 
ATOM     18  CG2 VAL A   2      16.064   3.365  36.634  0.00  0.00    +0.002 C 
ATOM     19  CG1 VAL A   2      16.504   1.350  35.172  0.00  0.00    +0.002 C 
ENDBRANCH   1  17
TORSDOF 7
REMARK  Name = ../refined-set-2016/3qfd/3qfd_pocket.pdb
REMARK  314 active torsions:
REMARK  status: ('A' for Active; 'I' for Inactive)
REMARK    1  A    between atoms: _1  and  _3
REMARK    2  A    between atoms: _3  and  _4
REMARK    3  A    between atoms: _3  and  _6
REMARK    4  A    between atoms: _6  and  _7
REMARK    5  A    between atoms: _7  and  _8
REMARK    6  A    between atoms: _10  and  _12
REMARK    7  A    between atoms: _12  and  _13
REMARK    8  A    between atoms: _12  and  _15
REMARK    9  A    between atoms: _15  and  _16
REMARK   10  A    between atoms: _16  and  _17
REMARK   11  A    between atoms: _17  and  _18
REMARK   12  A    between atoms: _27  and  _29
REMARK   13  A    between atoms: _29  and  _30
REMARK   14  A    between atoms: _29  and  _32
REMARK   15  A    between atoms: _32  and  _33
REMARK   16  A    between atoms: _38  and  _39
REMARK   17  A    between atoms: _41  and  _43
REMARK   18  A    between atoms: _43  and  _44
REMARK   19  A    between atoms: _43  and  _46
REMARK   20  A    between atoms: _46  and  _47
REMARK   21  A    between atoms: _53  and  _55
REMARK   22  A    between atoms: _55  and  _56
REMARK   23  A    between atoms: _55  and  _58
REMARK   24  A    between atoms: _58  and  _59
REMARK   25  A    between atoms: _65  and  _67
REMARK   26  A    between atoms: _67  and  _68
REMARK   27  A    between atoms: _71  and  _73
REMARK   28  A    between atoms: _73  and  _74
REMARK   29  A    between atoms: _73  and  _76
REMARK   30  A    between atoms: _79  and  _81
REMARK   31  A    between atoms: _81  and  _82
REMARK   32  A    between atoms: _84  and  _86
REMARK   33  A    between atoms: _86  and  _87
REMARK   34  A    between atoms: _86  and  _89
REMARK   35  A    between atoms: _92  and  _94
REMARK   36  A    between atoms: _94  and  _95
REMARK   37  A    between atoms: _94  and  _97
REMARK   38  A    between atoms: _97  and  _98
REMARK   39  A    between atoms: _104  and  _106
REMARK   40  A    between atoms: _106  and  _107
REMARK   41  A    between atoms: _106  and  _109
REMARK   42  A    between atoms: _112  and  _114
REMARK   43  A    between atoms: _114  and  _115
REMARK   44  A    between atoms: _114  and  _117
REMARK   45  A    between atoms: _117  and  _118
REMARK   46  A    between atoms: _118  and  _119
REMARK   47  A    between atoms: _121  and  _123
REMARK   48  A    between atoms: _123  and  _124
REMARK   49  A    between atoms: _123  and  _126
REMARK   50  A    between atoms: _126  and  _127
REMARK   51  A    between atoms: _130  and  _132
REMARK   52  A    between atoms: _132  and  _133
REMARK   53  A    between atoms: _132  and  _135
REMARK   54  A    between atoms: _135  and  _136
REMARK   55  A    between atoms: _136  and  _137
REMARK   56  A    between atoms: _140  and  _142
REMARK   57  A    between atoms: _142  and  _143
REMARK   58  A    between atoms: _142  and  _145
REMARK   59  A    between atoms: _145  and  _146
REMARK   60  A    between atoms: _151  and  _152
REMARK   61  A    between atoms: _154  and  _156
REMARK   62  A    between atoms: _156  and  _157
REMARK   63  A    between atoms: _159  and  _161
REMARK   64  A    between atoms: _161  and  _162
REMARK   65  A    between atoms: _161  and  _164
REMARK   66  A    between atoms: _164  and  _165
REMARK   67  A    between atoms: _165  and  _166
REMARK   68  A    between atoms: _169  and  _171
REMARK   69  A    between atoms: _171  and  _172
REMARK   70  A    between atoms: _171  and  _174
REMARK   71  A    between atoms: _174  and  _175
REMARK   72  A    between atoms: _178  and  _180
REMARK   73  A    between atoms: _180  and  _181
REMARK   74  A    between atoms: _180  and  _183
REMARK   75  A    between atoms: _183  and  _184
REMARK   76  A    between atoms: _184  and  _185
REMARK   77  A    between atoms: _185  and  _186
REMARK   78  A    between atoms: _195  and  _197
REMARK   79  A    between atoms: _197  and  _198
REMARK   80  A    between atoms: _197  and  _200
REMARK   81  A    between atoms: _200  and  _201
REMARK   82  A    between atoms: _201  and  _202
REMARK   83  A    between atoms: _202  and  _203
REMARK   84  A    between atoms: _203  and  _204
REMARK   85  A    between atoms: _208  and  _210
REMARK   86  A    between atoms: _210  and  _211
REMARK   87  A    between atoms: _210  and  _213
REMARK   88  A    between atoms: _216  and  _218
REMARK   89  A    between atoms: _218  and  _219
REMARK   90  A    between atoms: _222  and  _224
REMARK   91  A    between atoms: _224  and  _225
REMARK   92  A    between atoms: _224  and  _227
REMARK   93  A    between atoms: _227  and  _228
REMARK   94  A    between atoms: _233  and  _235
REMARK   95  A    between atoms: _235  and  _236
REMARK   96  A    between atoms: _235  and  _238
REMARK   97  A    between atoms: _238  and  _239
REMARK   98  A    between atoms: _241  and  _243
REMARK   99  A    between atoms: _243  and  _244
REMARK  100  A    between atoms: _243  and  _246
REMARK  101  A    between atoms: _246  and  _247
REMARK  102  A    between atoms: _247  and  _248
REMARK  103  A    between atoms: _253  and  _255
REMARK  104  A    between atoms: _255  and  _256
REMARK  105  A    between atoms: _255  and  _258
REMARK  106  A    between atoms: _258  and  _259
REMARK  107  A    between atoms: _262  and  _264
REMARK  108  A    between atoms: _264  and  _265
REMARK  109  A    between atoms: _264  and  _267
REMARK  110  A    between atoms: _267  and  _268
REMARK  111  A    between atoms: _273  and  _275
REMARK  112  A    between atoms: _275  and  _276
REMARK  113  A    between atoms: _275  and  _278
REMARK  114  A    between atoms: _278  and  _279
REMARK  115  A    between atoms: _279  and  _280
REMARK  116  A    between atoms: _280  and  _281
REMARK  117  A    between atoms: _290  and  _292
REMARK  118  A    between atoms: _292  and  _293
REMARK  119  A    between atoms: _292  and  _295
REMARK  120  A    between atoms: _298  and  _300
REMARK  121  A    between atoms: _300  and  _301
REMARK  122  A    between atoms: _300  and  _303
REMARK  123  A    between atoms: _303  and  _304
REMARK  124  A    between atoms: _307  and  _309
REMARK  125  A    between atoms: _309  and  _310
REMARK  126  A    between atoms: _309  and  _312
REMARK  127  A    between atoms: _312  and  _313
REMARK  128  A    between atoms: _316  and  _318
REMARK  129  A    between atoms: _318  and  _319
REMARK  130  A    between atoms: _321  and  _323
REMARK  131  A    between atoms: _323  and  _324
REMARK  132  A    between atoms: _323  and  _326
REMARK  133  A    between atoms: _326  and  _327
REMARK  134  A    between atoms: _330  and  _332
REMARK  135  A    between atoms: _332  and  _333
REMARK  136  A    between atoms: _332  and  _335
REMARK  137  A    between atoms: _335  and  _336
REMARK  138  A    between atoms: _339  and  _341
REMARK  139  A    between atoms: _341  and  _342
REMARK  140  A    between atoms: _341  and  _344
REMARK  141  A    between atoms: _344  and  _345
REMARK  142  A    between atoms: _345  and  _346
REMARK  143  A    between atoms: _346  and  _347
REMARK  144  A    between atoms: _356  and  _358
REMARK  145  A    between atoms: _358  and  _359
REMARK  146  A    between atoms: _358  and  _361
REMARK  147  A    between atoms: _361  and  _362
REMARK  148  A    between atoms: _367  and  _368
REMARK  149  A    between atoms: _370  and  _372
REMARK  150  A    between atoms: _372  and  _373
REMARK  151  A    between atoms: _372  and  _375
REMARK  152  A    between atoms: _378  and  _380
REMARK  153  A    between atoms: _380  and  _381
REMARK  154  A    between atoms: _380  and  _383
REMARK  155  A    between atoms: _383  and  _384
REMARK  156  A    between atoms: _384  and  _385
REMARK  157  A    between atoms: _385  and  _386
REMARK  158  A    between atoms: _395  and  _397
REMARK  159  A    between atoms: _397  and  _398
REMARK  160  A    between atoms: _397  and  _400
REMARK  161  A    between atoms: _400  and  _401
REMARK  162  A    between atoms: _406  and  _407
REMARK  163  A    between atoms: _409  and  _411
REMARK  164  A    between atoms: _411  and  _412
REMARK  165  A    between atoms: _414  and  _416
REMARK  166  A    between atoms: _416  and  _417
REMARK  167  A    between atoms: _416  and  _419
REMARK  168  A    between atoms: _419  and  _420
REMARK  169  A    between atoms: _420  and  _723
REMARK  170  A    between atoms: _421  and  _423
REMARK  171  A    between atoms: _423  and  _424
REMARK  172  A    between atoms: _423  and  _426
REMARK  173  A    between atoms: _426  and  _427
REMARK  174  A    between atoms: _432  and  _434
REMARK  175  A    between atoms: _434  and  _435
REMARK  176  A    between atoms: _434  and  _437
REMARK  177  A    between atoms: _437  and  _438
REMARK  178  A    between atoms: _443  and  _444
REMARK  179  A    between atoms: _446  and  _448
REMARK  180  A    between atoms: _448  and  _449
REMARK  181  A    between atoms: _452  and  _454
REMARK  182  A    between atoms: _454  and  _455
REMARK  183  A    between atoms: _454  and  _457
REMARK  184  A    between atoms: _457  and  _458
REMARK  185  A    between atoms: _463  and  _464
REMARK  186  A    between atoms: _466  and  _468
REMARK  187  A    between atoms: _468  and  _469
REMARK  188  A    between atoms: _468  and  _471
REMARK  189  A    between atoms: _471  and  _472
REMARK  190  A    between atoms: _477  and  _478
REMARK  191  A    between atoms: _480  and  _482
REMARK  192  A    between atoms: _482  and  _483
REMARK  193  A    between atoms: _482  and  _485
REMARK  194  A    between atoms: _485  and  _486
REMARK  195  A    between atoms: _489  and  _491
REMARK  196  A    between atoms: _491  and  _492
REMARK  197  A    between atoms: _491  and  _494
REMARK  198  A    between atoms: _494  and  _495
REMARK  199  A    between atoms: _505  and  _507
REMARK  200  A    between atoms: _507  and  _508
REMARK  201  A    between atoms: _511  and  _513
REMARK  202  A    between atoms: _513  and  _514
REMARK  203  A    between atoms: _517  and  _519
REMARK  204  A    between atoms: _519  and  _520
REMARK  205  A    between atoms: _519  and  _522
REMARK  206  A    between atoms: _522  and  _523
REMARK  207  A    between atoms: _523  and  _524
REMARK  208  A    between atoms: _529  and  _531
REMARK  209  A    between atoms: _531  and  _532
REMARK  210  A    between atoms: _531  and  _534
REMARK  211  A    between atoms: _534  and  _535
REMARK  212  A    between atoms: _538  and  _540
REMARK  213  A    between atoms: _540  and  _541
REMARK  214  A    between atoms: _540  and  _543
REMARK  215  A    between atoms: _543  and  _544
REMARK  216  A    between atoms: _547  and  _549
REMARK  217  A    between atoms: _549  and  _550
REMARK  218  A    between atoms: _549  and  _552
REMARK  219  A    between atoms: _552  and  _553
REMARK  220  A    between atoms: _553  and  _554
REMARK  221  A    between atoms: _554  and  _555
REMARK  222  A    between atoms: _555  and  _556
REMARK  223  A    between atoms: _560  and  _562
REMARK  224  A    between atoms: _562  and  _563
REMARK  225  A    between atoms: _562  and  _565
REMARK  226  A    between atoms: _565  and  _566
REMARK  227  A    between atoms: _571  and  _573
REMARK  228  A    between atoms: _573  and  _574
REMARK  229  A    between atoms: _573  and  _576
REMARK  230  A    between atoms: _576  and  _577
REMARK  231  A    between atoms: _577  and  _578
REMARK  232  A    between atoms: _578  and  _579
REMARK  233  A    between atoms: _579  and  _580
REMARK  234  A    between atoms: _584  and  _586
REMARK  235  A    between atoms: _586  and  _587
REMARK  236  A    between atoms: _586  and  _589
REMARK  237  A    between atoms: _589  and  _590
REMARK  238  A    between atoms: _600  and  _602
REMARK  239  A    between atoms: _602  and  _603
REMARK  240  A    between atoms: _602  and  _605
REMARK  241  A    between atoms: _605  and  _606
REMARK  242  A    between atoms: _606  and  _607
REMARK  243  A    between atoms: _610  and  _612
REMARK  244  A    between atoms: _612  and  _613
REMARK  245  A    between atoms: _616  and  _618
REMARK  246  A    between atoms: _618  and  _619
REMARK  247  A    between atoms: _622  and  _624
REMARK  248  A    between atoms: _624  and  _625
REMARK  249  A    between atoms: _624  and  _627
REMARK  250  A    between atoms: _627  and  _628
REMARK  251  A    between atoms: _633  and  _635
REMARK  252  A    between atoms: _635  and  _636
REMARK  253  A    between atoms: _635  and  _638
REMARK  254  A    between atoms: _641  and  _643
REMARK  255  A    between atoms: _643  and  _644
REMARK  256  A    between atoms: _647  and  _649
REMARK  257  A    between atoms: _649  and  _650
REMARK  258  A    between atoms: _649  and  _652
REMARK  259  A    between atoms: _652  and  _653
REMARK  260  A    between atoms: _653  and  _654
REMARK  261  A    between atoms: _659  and  _661
REMARK  262  A    between atoms: _661  and  _662
REMARK  263  A    between atoms: _661  and  _664
REMARK  264  A    between atoms: _664  and  _665
REMARK  265  A    between atoms: _668  and  _670
REMARK  266  A    between atoms: _670  and  _671
REMARK  267  A    between atoms: _670  and  _673
REMARK  268  A    between atoms: _673  and  _674
REMARK  269  A    between atoms: _674  and  _675
REMARK  270  A    between atoms: _675  and  _676
REMARK  271  A    between atoms: _685  and  _687
REMARK  272  A    between atoms: _687  and  _688
REMARK  273  A    between atoms: _687  and  _690
REMARK  274  A    between atoms: _690  and  _691
REMARK  275  A    between atoms: _696  and  _697
REMARK  276  A    between atoms: _699  and  _701
REMARK  277  A    between atoms: _701  and  _702
REMARK  278  A    between atoms: _701  and  _704
REMARK  279  A    between atoms: _704  and  _705
REMARK  280  A    between atoms: _708  and  _710
REMARK  281  A    between atoms: _710  and  _711
REMARK  282  A    between atoms: _710  and  _713
REMARK  283  A    between atoms: _713  and  _714
REMARK  284  A    between atoms: _717  and  _719
REMARK  285  A    between atoms: _719  and  _720
REMARK  286  A    between atoms: _719  and  _722
REMARK  287  A    between atoms: _722  and  _723
REMARK  288  A    between atoms: _724  and  _726
REMARK  289  A    between atoms: _726  and  _727
REMARK  290  A    between atoms: _726  and  _729
REMARK  291  A    between atoms: _732  and  _734
REMARK  292  A    between atoms: _734  and  _735
REMARK  293  A    between atoms: _734  and  _737
REMARK  294  A    between atoms: _737  and  _738
REMARK  295  A    between atoms: _738  and  _739
REMARK  296  A    between atoms: _742  and  _744
REMARK  297  A    between atoms: _744  and  _745
REMARK  298  A    between atoms: _744  and  _747
REMARK  299  A    between atoms: _747  and  _748
REMARK  300  A    between atoms: _758  and  _760
REMARK  301  A    between atoms: _760  and  _761
REMARK  302  A    between atoms: _760  and  _763
REMARK  303  A    between atoms: _763  and  _764
REMARK  304  A    between atoms: _767  and  _769
REMARK  305  A    between atoms: _769  and  _770
REMARK  306  A    between atoms: _769  and  _772
REMARK  307  A    between atoms: _772  and  _773
REMARK  308  A    between atoms: _773  and  _774
REMARK  309  A    between atoms: _774  and  _775
REMARK  310  A    between atoms: _784  and  _786
REMARK  311  A    between atoms: _786  and  _787
REMARK  312  A    between atoms: _786  and  _789
REMARK  313  A    between atoms: _789  and  _790
REMARK  314  A    between atoms: _795  and  _796
REMARK                            x       y       z     vdW  Elec       q    Type
REMARK                         _______ _______ _______ _____ _____    ______ ____
ROOT
ATOM      1  CA  VAL A   1      12.353  -7.626  38.774  0.00  0.00    +0.133 C 
ENDROOT
BRANCH   1   2
ATOM      2  CB  VAL A   1      11.966  -8.141  40.179  0.00  0.00    +0.023 C 
ATOM      3  CG2 VAL A   1      13.221  -8.029  41.152  0.00  0.00    +0.002 C 
ATOM      4  CG1 VAL A   1      11.403  -9.570  40.059  0.00  0.00    +0.002 C 
ENDBRANCH   1   2
BRANCH   1   5
ATOM      5  N   VAL A   1      12.742  -6.211  38.766  0.00  0.00    -0.239 NA
ATOM      6  H   VAL A   1      12.117  -5.518  39.226  0.00  0.00    +0.142 HD
ENDBRANCH   1   5
BRANCH   1   7
ATOM      7  C   VAL A   1      11.205  -7.733  37.815  0.00  0.00    +0.224 C 
ATOM      8  O   VAL A   1      10.183  -7.045  37.981  0.00  0.00    -0.287 OA
ENDBRANCH   1   7
TORSDOF 3
REMARK  Name = ../refined-set-2016/3qfd/3qfd_pocket.pdb
REMARK  314 active torsions:
REMARK  status: ('A' for Active; 'I' for Inactive)
REMARK    1  A    between atoms: _1  and  _3
REMARK    2  A    between atoms: _3  and  _4
REMARK    3  A    between atoms: _3  and  _6
REMARK    4  A    between atoms: _6  and  _7
REMARK    5  A    between atoms: _7  and  _8
REMARK    6  A    between atoms: _10  and  _12
REMARK    7  A    between atoms: _12  and  _13
REMARK    8  A    between atoms: _12  and  _15
REMARK    9  A    between atoms: _15  and  _16
REMARK   10  A    between atoms: _16  and  _17
REMARK   11  A    between atoms: _17  and  _18
REMARK   12  A    between atoms: _27  and  _29
REMARK   13  A    between atoms: _29  and  _30
REMARK   14  A    between atoms: _29  and  _32
REMARK   15  A    between atoms: _32  and  _33
REMARK   16  A    between atoms: _38  and  _39
REMARK   17  A    between atoms: _41  and  _43
REMARK   18  A    between atoms: _43  and  _44
REMARK   19  A    between atoms: _43  and  _46
REMARK   20  A    between atoms: _46  and  _47
REMARK   21  A    between atoms: _53  and  _55
REMARK   22  A    between atoms: _55  and  _56
REMARK   23  A    between atoms: _55  and  _58
REMARK   24  A    between atoms: _58  and  _59
REMARK   25  A    between atoms: _65  and  _67
REMARK   26  A    between atoms: _67  and  _68
REMARK   27  A    between atoms: _71  and  _73
REMARK   28  A    between atoms: _73  and  _74
REMARK   29  A    between atoms: _73  and  _76
REMARK   30  A    between atoms: _79  and  _81
REMARK   31  A    between atoms: _81  and  _82
REMARK   32  A    between atoms: _84  and  _86
REMARK   33  A    between atoms: _86  and  _87
REMARK   34  A    between atoms: _86  and  _89
REMARK   35  A    between atoms: _92  and  _94
REMARK   36  A    between atoms: _94  and  _95
REMARK   37  A    between atoms: _94  and  _97
REMARK   38  A    between atoms: _97  and  _98
REMARK   39  A    between atoms: _104  and  _106
REMARK   40  A    between atoms: _106  and  _107
REMARK   41  A    between atoms: _106  and  _109
REMARK   42  A    between atoms: _112  and  _114
REMARK   43  A    between atoms: _114  and  _115
REMARK   44  A    between atoms: _114  and  _117
REMARK   45  A    between atoms: _117  and  _118
REMARK   46  A    between atoms: _118  and  _119
REMARK   47  A    between atoms: _121  and  _123
REMARK   48  A    between atoms: _123  and  _124
REMARK   49  A    between atoms: _123  and  _126
REMARK   50  A    between atoms: _126  and  _127
REMARK   51  A    between atoms: _130  and  _132
REMARK   52  A    between atoms: _132  and  _133
REMARK   53  A    between atoms: _132  and  _135
REMARK   54  A    between atoms: _135  and  _136
REMARK   55  A    between atoms: _136  and  _137
REMARK   56  A    between atoms: _140  and  _142
REMARK   57  A    between atoms: _142  and  _143
REMARK   58  A    between atoms: _142  and  _145
REMARK   59  A    between atoms: _145  and  _146
REMARK   60  A    between atoms: _151  and  _152
REMARK   61  A    between atoms: _154  and  _156
REMARK   62  A    between atoms: _156  and  _157
REMARK   63  A    between atoms: _159  and  _161
REMARK   64  A    between atoms: _161  and  _162
REMARK   65  A    between atoms: _161  and  _164
REMARK   66  A    between atoms: _164  and  _165
REMARK   67  A    between atoms: _165  and  _166
REMARK   68  A    between atoms: _169  and  _171
REMARK   69  A    between atoms: _171  and  _172
REMARK   70  A    between atoms: _171  and  _174
REMARK   71  A    between atoms: _174  and  _175
REMARK   72  A    between atoms: _178  and  _180
REMARK   73  A    between atoms: _180  and  _181
REMARK   74  A    between atoms: _180  and  _183
REMARK   75  A    between atoms: _183  and  _184
REMARK   76  A    between atoms: _184  and  _185
REMARK   77  A    between atoms: _185  and  _186
REMARK   78  A    between atoms: _195  and  _197
REMARK   79  A    between atoms: _197  and  _198
REMARK   80  A    between atoms: _197  and  _200
REMARK   81  A    between atoms: _200  and  _201
REMARK   82  A    between atoms: _201  and  _202
REMARK   83  A    between atoms: _202  and  _203
REMARK   84  A    between atoms: _203  and  _204
REMARK   85  A    between atoms: _208  and  _210
REMARK   86  A    between atoms: _210  and  _211
REMARK   87  A    between atoms: _210  and  _213
REMARK   88  A    between atoms: _216  and  _218
REMARK   89  A    between atoms: _218  and  _219
REMARK   90  A    between atoms: _222  and  _224
REMARK   91  A    between atoms: _224  and  _225
REMARK   92  A    between atoms: _224  and  _227
REMARK   93  A    between atoms: _227  and  _228
REMARK   94  A    between atoms: _233  and  _235
REMARK   95  A    between atoms: _235  and  _236
REMARK   96  A    between atoms: _235  and  _238
REMARK   97  A    between atoms: _238  and  _239
REMARK   98  A    between atoms: _241  and  _243
REMARK   99  A    between atoms: _243  and  _244
REMARK  100  A    between atoms: _243  and  _246
REMARK  101  A    between atoms: _246  and  _247
REMARK  102  A    between atoms: _247  and  _248
REMARK  103  A    between atoms: _253  and  _255
REMARK  104  A    between atoms: _255  and  _256
REMARK  105  A    between atoms: _255  and  _258
REMARK  106  A    between atoms: _258  and  _259
REMARK  107  A    between atoms: _262  and  _264
REMARK  108  A    between atoms: _264  and  _265
REMARK  109  A    between atoms: _264  and  _267
REMARK  110  A    between atoms: _267  and  _268
REMARK  111  A    between atoms: _273  and  _275
REMARK  112  A    between atoms: _275  and  _276
REMARK  113  A    between atoms: _275  and  _278
REMARK  114  A    between atoms: _278  and  _279
REMARK  115  A    between atoms: _279  and  _280
REMARK  116  A    between atoms: _280  and  _281
REMARK  117  A    between atoms: _290  and  _292
REMARK  118  A    between atoms: _292  and  _293
REMARK  119  A    between atoms: _292  and  _295
REMARK  120  A    between atoms: _298  and  _300
REMARK  121  A    between atoms: _300  and  _301
REMARK  122  A    between atoms: _300  and  _303
REMARK  123  A    between atoms: _303  and  _304
REMARK  124  A    between atoms: _307  and  _309
REMARK  125  A    between atoms: _309  and  _310
REMARK  126  A    between atoms: _309  and  _312
REMARK  127  A    between atoms: _312  and  _313
REMARK  128  A    between atoms: _316  and  _318
REMARK  129  A    between atoms: _318  and  _319
REMARK  130  A    between atoms: _321  and  _323
REMARK  131  A    between atoms: _323  and  _324
REMARK  132  A    between atoms: _323  and  _326
REMARK  133  A    between atoms: _326  and  _327
REMARK  134  A    between atoms: _330  and  _332
REMARK  135  A    between atoms: _332  and  _333
REMARK  136  A    between atoms: _332  and  _335
REMARK  137  A    between atoms: _335  and  _336
REMARK  138  A    between atoms: _339  and  _341
REMARK  139  A    between atoms: _341  and  _342
REMARK  140  A    between atoms: _341  and  _344
REMARK  141  A    between atoms: _344  and  _345
REMARK  142  A    between atoms: _345  and  _346
REMARK  143  A    between atoms: _346  and  _347
REMARK  144  A    between atoms: _356  and  _358
REMARK  145  A    between atoms: _358  and  _359
REMARK  146  A    between atoms: _358  and  _361
REMARK  147  A    between atoms: _361  and  _362
REMARK  148  A    between atoms: _367  and  _368
REMARK  149  A    between atoms: _370  and  _372
REMARK  150  A    between atoms: _372  and  _373
REMARK  151  A    between atoms: _372  and  _375
REMARK  152  A    between atoms: _378  and  _380
REMARK  153  A    between atoms: _380  and  _381
REMARK  154  A    between atoms: _380  and  _383
REMARK  155  A    between atoms: _383  and  _384
REMARK  156  A    between atoms: _384  and  _385
REMARK  157  A    between atoms: _385  and  _386
REMARK  158  A    between atoms: _395  and  _397
REMARK  159  A    between atoms: _397  and  _398
REMARK  160  A    between atoms: _397  and  _400
REMARK  161  A    between atoms: _400  and  _401
REMARK  162  A    between atoms: _406  and  _407
REMARK  163  A    between atoms: _409  and  _411
REMARK  164  A    between atoms: _411  and  _412
REMARK  165  A    between atoms: _414  and  _416
REMARK  166  A    between atoms: _416  and  _417
REMARK  167  A    between atoms: _416  and  _419
REMARK  168  A    between atoms: _419  and  _420
REMARK  169  A    between atoms: _420  and  _723
REMARK  170  A    between atoms: _421  and  _423
REMARK  171  A    between atoms: _423  and  _424
REMARK  172  A    between atoms: _423  and  _426
REMARK  173  A    between atoms: _426  and  _427
REMARK  174  A    between atoms: _432  and  _434
REMARK  175  A    between atoms: _434  and  _435
REMARK  176  A    between atoms: _434  and  _437
REMARK  177  A    between atoms: _437  and  _438
REMARK  178  A    between atoms: _443  and  _444
REMARK  179  A    between atoms: _446  and  _448
REMARK  180  A    between atoms: _448  and  _449
REMARK  181  A    between atoms: _452  and  _454
REMARK  182  A    between atoms: _454  and  _455
REMARK  183  A    between atoms: _454  and  _457
REMARK  184  A    between atoms: _457  and  _458
REMARK  185  A    between atoms: _463  and  _464
REMARK  186  A    between atoms: _466  and  _468
REMARK  187  A    between atoms: _468  and  _469
REMARK  188  A    between atoms: _468  and  _471
REMARK  189  A    between atoms: _471  and  _472
REMARK  190  A    between atoms: _477  and  _478
REMARK  191  A    between atoms: _480  and  _482
REMARK  192  A    between atoms: _482  and  _483
REMARK  193  A    between atoms: _482  and  _485
REMARK  194  A    between atoms: _485  and  _486
REMARK  195  A    between atoms: _489  and  _491
REMARK  196  A    between atoms: _491  and  _492
REMARK  197  A    between atoms: _491  and  _494
REMARK  198  A    between atoms: _494  and  _495
REMARK  199  A    between atoms: _505  and  _507
REMARK  200  A    between atoms: _507  and  _508
REMARK  201  A    between atoms: _511  and  _513
REMARK  202  A    between atoms: _513  and  _514
REMARK  203  A    between atoms: _517  and  _519
REMARK  204  A    between atoms: _519  and  _520
REMARK  205  A    between atoms: _519  and  _522
REMARK  206  A    between atoms: _522  and  _523
REMARK  207  A    between atoms: _523  and  _524
REMARK  208  A    between atoms: _529  and  _531
REMARK  209  A    between atoms: _531  and  _532
REMARK  210  A    between atoms: _531  and  _534
REMARK  211  A    between atoms: _534  and  _535
REMARK  212  A    between atoms: _538  and  _540
REMARK  213  A    between atoms: _540  and  _541
REMARK  214  A    between atoms: _540  and  _543
REMARK  215  A    between atoms: _543  and  _544
REMARK  216  A    between atoms: _547  and  _549
REMARK  217  A    between atoms: _549  and  _550
REMARK  218  A    between atoms: _549  and  _552
REMARK  219  A    between atoms: _552  and  _553
REMARK  220  A    between atoms: _553  and  _554
REMARK  221  A    between atoms: _554  and  _555
REMARK  222  A    between atoms: _555  and  _556
REMARK  223  A    between atoms: _560  and  _562
REMARK  224  A    between atoms: _562  and  _563
REMARK  225  A    between atoms: _562  and  _565
REMARK  226  A    between atoms: _565  and  _566
REMARK  227  A    between atoms: _571  and  _573
REMARK  228  A    between atoms: _573  and  _574
REMARK  229  A    between atoms: _573  and  _576
REMARK  230  A    between atoms: _576  and  _577
REMARK  231  A    between atoms: _577  and  _578
REMARK  232  A    between atoms: _578  and  _579
REMARK  233  A    between atoms: _579  and  _580
REMARK  234  A    between atoms: _584  and  _586
REMARK  235  A    between atoms: _586  and  _587
REMARK  236  A    between atoms: _586  and  _589
REMARK  237  A    between atoms: _589  and  _590
REMARK  238  A    between atoms: _600  and  _602
REMARK  239  A    between atoms: _602  and  _603
REMARK  240  A    between atoms: _602  and  _605
REMARK  241  A    between atoms: _605  and  _606
REMARK  242  A    between atoms: _606  and  _607
REMARK  243  A    between atoms: _610  and  _612
REMARK  244  A    between atoms: _612  and  _613
REMARK  245  A    between atoms: _616  and  _618
REMARK  246  A    between atoms: _618  and  _619
REMARK  247  A    between atoms: _622  and  _624
REMARK  248  A    between atoms: _624  and  _625
REMARK  249  A    between atoms: _624  and  _627
REMARK  250  A    between atoms: _627  and  _628
REMARK  251  A    between atoms: _633  and  _635
REMARK  252  A    between atoms: _635  and  _636
REMARK  253  A    between atoms: _635  and  _638
REMARK  254  A    between atoms: _641  and  _643
REMARK  255  A    between atoms: _643  and  _644
REMARK  256  A    between atoms: _647  and  _649
REMARK  257  A    between atoms: _649  and  _650
REMARK  258  A    between atoms: _649  and  _652
REMARK  259  A    between atoms: _652  and  _653
REMARK  260  A    between atoms: _653  and  _654
REMARK  261  A    between atoms: _659  and  _661
REMARK  262  A    between atoms: _661  and  _662
REMARK  263  A    between atoms: _661  and  _664
REMARK  264  A    between atoms: _664  and  _665
REMARK  265  A    between atoms: _668  and  _670
REMARK  266  A    between atoms: _670  and  _671
REMARK  267  A    between atoms: _670  and  _673
REMARK  268  A    between atoms: _673  and  _674
REMARK  269  A    between atoms: _674  and  _675
REMARK  270  A    between atoms: _675  and  _676
REMARK  271  A    between atoms: _685  and  _687
REMARK  272  A    between atoms: _687  and  _688
REMARK  273  A    between atoms: _687  and  _690
REMARK  274  A    between atoms: _690  and  _691
REMARK  275  A    between atoms: _696  and  _697
REMARK  276  A    between atoms: _699  and  _701
REMARK  277  A    between atoms: _701  and  _702
REMARK  278  A    between atoms: _701  and  _704
REMARK  279  A    between atoms: _704  and  _705
REMARK  280  A    between atoms: _708  and  _710
REMARK  281  A    between atoms: _710  and  _711
REMARK  282  A    between atoms: _710  and  _713
REMARK  283  A    between atoms: _713  and  _714
REMARK  284  A    between atoms: _717  and  _719
REMARK  285  A    between atoms: _719  and  _720
REMARK  286  A    between atoms: _719  and  _722
REMARK  287  A    between atoms: _722  and  _723
REMARK  288  A    between atoms: _724  and  _726
REMARK  289  A    between atoms: _726  and  _727
REMARK  290  A    between atoms: _726  and  _729
REMARK  291  A    between atoms: _732  and  _734
REMARK  292  A    between atoms: _734  and  _735
REMARK  293  A    between atoms: _734  and  _737
REMARK  294  A    between atoms: _737  and  _738
REMARK  295  A    between atoms: _738  and  _739
REMARK  296  A    between atoms: _742  and  _744
REMARK  297  A    between atoms: _744  and  _745
REMARK  298  A    between atoms: _744  and  _747
REMARK  299  A    between atoms: _747  and  _748
REMARK  300  A    between atoms: _758  and  _760
REMARK  301  A    between atoms: _760  and  _761
REMARK  302  A    between atoms: _760  and  _763
REMARK  303  A    between atoms: _763  and  _764
REMARK  304  A    between atoms: _767  and  _769
REMARK  305  A    between atoms: _769  and  _770
REMARK  306  A    between atoms: _769  and  _772
REMARK  307  A    between atoms: _772  and  _773
REMARK  308  A    between atoms: _773  and  _774
REMARK  309  A    between atoms: _774  and  _775
REMARK  310  A    between atoms: _784  and  _786
REMARK  311  A    between atoms: _786  and  _787
REMARK  312  A    between atoms: _786  and  _789
REMARK  313  A    between atoms: _789  and  _790
REMARK  314  A    between atoms: _795  and  _796
REMARK                            x       y       z     vdW  Elec       q    Type
REMARK                         _______ _______ _______ _____ _____    ______ ____
ROOT
ATOM      1  CA  PHE A   1      12.517  -1.385  42.432  0.00  0.00    +0.149 C 
ENDROOT
BRANCH   1   2
ATOM      2  C   PHE A   1      13.590  -0.481  43.028  0.00  0.00    +0.239 C 
ATOM      3  O   PHE A   1      13.530  -0.194  44.218  0.00  0.00    -0.274 OA
ATOM      4  N   VAL A   2      14.580  -0.065  42.243  0.00  0.00    -0.298 N 
ATOM      5  H   VAL A   2      14.656  -0.428  41.271  0.00  0.00    +0.150 HD
BRANCH   4   6
ATOM      6  CA  VAL A   2      15.568   0.905  42.739  0.00  0.00    +0.137 C 
BRANCH   6   7
ATOM      7  CB  VAL A   2      16.889   0.273  43.242  0.00  0.00    +0.026 C 
ATOM      8  CG2 VAL A   2      16.741  -0.457  44.573  0.00  0.00    +0.002 C 
ATOM      9  CG1 VAL A   2      17.441  -0.690  42.185  0.00  0.00    +0.002 C 
ENDBRANCH   6   7
BRANCH   6  10
ATOM     10  C   VAL A   2      15.915   1.922  41.663  0.00  0.00    +0.227 C 
ATOM     11  O   VAL A   2      15.704   1.696  40.453  0.00  0.00    -0.286 OA
ENDBRANCH   6  10
ENDBRANCH   4   6
ENDBRANCH   1   2
BRANCH   1  12
ATOM     12  N   PHE A   1      12.390  -1.403  40.977  0.00  0.00    -0.238 NA
ATOM     13  H   PHE A   1      13.237  -1.464  40.376  0.00  0.00    +0.142 HD
ENDBRANCH   1  12
BRANCH   1  14
ATOM     14  CB  PHE A   1      12.637  -2.787  43.039  0.00  0.00    +0.053 C 
BRANCH  14  15
ATOM     15  CG  PHE A   1      13.928  -3.514  42.730  0.00  0.00    -0.020 A 
ATOM     16  CD2 PHE A   1      14.919  -3.610  43.679  0.00  0.00    -0.004 A 
ATOM     17  CE2 PHE A   1      16.123  -4.299  43.405  0.00  0.00    -0.000 A 
ATOM     18  CZ  PHE A   1      16.319  -4.889  42.166  0.00  0.00    -0.000 A 
ATOM     19  CE1 PHE A   1      15.310  -4.803  41.209  0.00  0.00    -0.000 A 
ATOM     20  CD1 PHE A   1      14.126  -4.137  41.496  0.00  0.00    -0.004 A 
ENDBRANCH  14  15
ENDBRANCH   1  14
TORSDOF 7
REMARK  Name = ../refined-set-2016/3qfd/3qfd_pocket.pdb
REMARK  314 active torsions:
REMARK  status: ('A' for Active; 'I' for Inactive)
REMARK    1  A    between atoms: _1  and  _3
REMARK    2  A    between atoms: _3  and  _4
REMARK    3  A    between atoms: _3  and  _6
REMARK    4  A    between atoms: _6  and  _7
REMARK    5  A    between atoms: _7  and  _8
REMARK    6  A    between atoms: _10  and  _12
REMARK    7  A    between atoms: _12  and  _13
REMARK    8  A    between atoms: _12  and  _15
REMARK    9  A    between atoms: _15  and  _16
REMARK   10  A    between atoms: _16  and  _17
REMARK   11  A    between atoms: _17  and  _18
REMARK   12  A    between atoms: _27  and  _29
REMARK   13  A    between atoms: _29  and  _30
REMARK   14  A    between atoms: _29  and  _32
REMARK   15  A    between atoms: _32  and  _33
REMARK   16  A    between atoms: _38  and  _39
REMARK   17  A    between atoms: _41  and  _43
REMARK   18  A    between atoms: _43  and  _44
REMARK   19  A    between atoms: _43  and  _46
REMARK   20  A    between atoms: _46  and  _47
REMARK   21  A    between atoms: _53  and  _55
REMARK   22  A    between atoms: _55  and  _56
REMARK   23  A    between atoms: _55  and  _58
REMARK   24  A    between atoms: _58  and  _59
REMARK   25  A    between atoms: _65  and  _67
REMARK   26  A    between atoms: _67  and  _68
REMARK   27  A    between atoms: _71  and  _73
REMARK   28  A    between atoms: _73  and  _74
REMARK   29  A    between atoms: _73  and  _76
REMARK   30  A    between atoms: _79  and  _81
REMARK   31  A    between atoms: _81  and  _82
REMARK   32  A    between atoms: _84  and  _86
REMARK   33  A    between atoms: _86  and  _87
REMARK   34  A    between atoms: _86  and  _89
REMARK   35  A    between atoms: _92  and  _94
REMARK   36  A    between atoms: _94  and  _95
REMARK   37  A    between atoms: _94  and  _97
REMARK   38  A    between atoms: _97  and  _98
REMARK   39  A    between atoms: _104  and  _106
REMARK   40  A    between atoms: _106  and  _107
REMARK   41  A    between atoms: _106  and  _109
REMARK   42  A    between atoms: _112  and  _114
REMARK   43  A    between atoms: _114  and  _115
REMARK   44  A    between atoms: _114  and  _117
REMARK   45  A    between atoms: _117  and  _118
REMARK   46  A    between atoms: _118  and  _119
REMARK   47  A    between atoms: _121  and  _123
REMARK   48  A    between atoms: _123  and  _124
REMARK   49  A    between atoms: _123  and  _126
REMARK   50  A    between atoms: _126  and  _127
REMARK   51  A    between atoms: _130  and  _132
REMARK   52  A    between atoms: _132  and  _133
REMARK   53  A    between atoms: _132  and  _135
REMARK   54  A    between atoms: _135  and  _136
REMARK   55  A    between atoms: _136  and  _137
REMARK   56  A    between atoms: _140  and  _142
REMARK   57  A    between atoms: _142  and  _143
REMARK   58  A    between atoms: _142  and  _145
REMARK   59  A    between atoms: _145  and  _146
REMARK   60  A    between atoms: _151  and  _152
REMARK   61  A    between atoms: _154  and  _156
REMARK   62  A    between atoms: _156  and  _157
REMARK   63  A    between atoms: _159  and  _161
REMARK   64  A    between atoms: _161  and  _162
REMARK   65  A    between atoms: _161  and  _164
REMARK   66  A    between atoms: _164  and  _165
REMARK   67  A    between atoms: _165  and  _166
REMARK   68  A    between atoms: _169  and  _171
REMARK   69  A    between atoms: _171  and  _172
REMARK   70  A    between atoms: _171  and  _174
REMARK   71  A    between atoms: _174  and  _175
REMARK   72  A    between atoms: _178  and  _180
REMARK   73  A    between atoms: _180  and  _181
REMARK   74  A    between atoms: _180  and  _183
REMARK   75  A    between atoms: _183  and  _184
REMARK   76  A    between atoms: _184  and  _185
REMARK   77  A    between atoms: _185  and  _186
REMARK   78  A    between atoms: _195  and  _197
REMARK   79  A    between atoms: _197  and  _198
REMARK   80  A    between atoms: _197  and  _200
REMARK   81  A    between atoms: _200  and  _201
REMARK   82  A    between atoms: _201  and  _202
REMARK   83  A    between atoms: _202  and  _203
REMARK   84  A    between atoms: _203  and  _204
REMARK   85  A    between atoms: _208  and  _210
REMARK   86  A    between atoms: _210  and  _211
REMARK   87  A    between atoms: _210  and  _213
REMARK   88  A    between atoms: _216  and  _218
REMARK   89  A    between atoms: _218  and  _219
REMARK   90  A    between atoms: _222  and  _224
REMARK   91  A    between atoms: _224  and  _225
REMARK   92  A    between atoms: _224  and  _227
REMARK   93  A    between atoms: _227  and  _228
REMARK   94  A    between atoms: _233  and  _235
REMARK   95  A    between atoms: _235  and  _236
REMARK   96  A    between atoms: _235  and  _238
REMARK   97  A    between atoms: _238  and  _239
REMARK   98  A    between atoms: _241  and  _243
REMARK   99  A    between atoms: _243  and  _244
REMARK  100  A    between atoms: _243  and  _246
REMARK  101  A    between atoms: _246  and  _247
REMARK  102  A    between atoms: _247  and  _248
REMARK  103  A    between atoms: _253  and  _255
REMARK  104  A    between atoms: _255  and  _256
REMARK  105  A    between atoms: _255  and  _258
REMARK  106  A    between atoms: _258  and  _259
REMARK  107  A    between atoms: _262  and  _264
REMARK  108  A    between atoms: _264  and  _265
REMARK  109  A    between atoms: _264  and  _267
REMARK  110  A    between atoms: _267  and  _268
REMARK  111  A    between atoms: _273  and  _275
REMARK  112  A    between atoms: _275  and  _276
REMARK  113  A    between atoms: _275  and  _278
REMARK  114  A    between atoms: _278  and  _279
REMARK  115  A    between atoms: _279  and  _280
REMARK  116  A    between atoms: _280  and  _281
REMARK  117  A    between atoms: _290  and  _292
REMARK  118  A    between atoms: _292  and  _293
REMARK  119  A    between atoms: _292  and  _295
REMARK  120  A    between atoms: _298  and  _300
REMARK  121  A    between atoms: _300  and  _301
REMARK  122  A    between atoms: _300  and  _303
REMARK  123  A    between atoms: _303  and  _304
REMARK  124  A    between atoms: _307  and  _309
REMARK  125  A    between atoms: _309  and  _310
REMARK  126  A    between atoms: _309  and  _312
REMARK  127  A    between atoms: _312  and  _313
REMARK  128  A    between atoms: _316  and  _318
REMARK  129  A    between atoms: _318  and  _319
REMARK  130  A    between atoms: _321  and  _323
REMARK  131  A    between atoms: _323  and  _324
REMARK  132  A    between atoms: _323  and  _326
REMARK  133  A    between atoms: _326  and  _327
REMARK  134  A    between atoms: _330  and  _332
REMARK  135  A    between atoms: _332  and  _333
REMARK  136  A    between atoms: _332  and  _335
REMARK  137  A    between atoms: _335  and  _336
REMARK  138  A    between atoms: _339  and  _341
REMARK  139  A    between atoms: _341  and  _342
REMARK  140  A    between atoms: _341  and  _344
REMARK  141  A    between atoms: _344  and  _345
REMARK  142  A    between atoms: _345  and  _346
REMARK  143  A    between atoms: _346  and  _347
REMARK  144  A    between atoms: _356  and  _358
REMARK  145  A    between atoms: _358  and  _359
REMARK  146  A    between atoms: _358  and  _361
REMARK  147  A    between atoms: _361  and  _362
REMARK  148  A    between atoms: _367  and  _368
REMARK  149  A    between atoms: _370  and  _372
REMARK  150  A    between atoms: _372  and  _373
REMARK  151  A    between atoms: _372  and  _375
REMARK  152  A    between atoms: _378  and  _380
REMARK  153  A    between atoms: _380  and  _381
REMARK  154  A    between atoms: _380  and  _383
REMARK  155  A    between atoms: _383  and  _384
REMARK  156  A    between atoms: _384  and  _385
REMARK  157  A    between atoms: _385  and  _386
REMARK  158  A    between atoms: _395  and  _397
REMARK  159  A    between atoms: _397  and  _398
REMARK  160  A    between atoms: _397  and  _400
REMARK  161  A    between atoms: _400  and  _401
REMARK  162  A    between atoms: _406  and  _407
REMARK  163  A    between atoms: _409  and  _411
REMARK  164  A    between atoms: _411  and  _412
REMARK  165  A    between atoms: _414  and  _416
REMARK  166  A    between atoms: _416  and  _417
REMARK  167  A    between atoms: _416  and  _419
REMARK  168  A    between atoms: _419  and  _420
REMARK  169  A    between atoms: _420  and  _723
REMARK  170  A    between atoms: _421  and  _423
REMARK  171  A    between atoms: _423  and  _424
REMARK  172  A    between atoms: _423  and  _426
REMARK  173  A    between atoms: _426  and  _427
REMARK  174  A    between atoms: _432  and  _434
REMARK  175  A    between atoms: _434  and  _435
REMARK  176  A    between atoms: _434  and  _437
REMARK  177  A    between atoms: _437  and  _438
REMARK  178  A    between atoms: _443  and  _444
REMARK  179  A    between atoms: _446  and  _448
REMARK  180  A    between atoms: _448  and  _449
REMARK  181  A    between atoms: _452  and  _454
REMARK  182  A    between atoms: _454  and  _455
REMARK  183  A    between atoms: _454  and  _457
REMARK  184  A    between atoms: _457  and  _458
REMARK  185  A    between atoms: _463  and  _464
REMARK  186  A    between atoms: _466  and  _468
REMARK  187  A    between atoms: _468  and  _469
REMARK  188  A    between atoms: _468  and  _471
REMARK  189  A    between atoms: _471  and  _472
REMARK  190  A    between atoms: _477  and  _478
REMARK  191  A    between atoms: _480  and  _482
REMARK  192  A    between atoms: _482  and  _483
REMARK  193  A    between atoms: _482  and  _485
REMARK  194  A    between atoms: _485  and  _486
REMARK  195  A    between atoms: _489  and  _491
REMARK  196  A    between atoms: _491  and  _492
REMARK  197  A    between atoms: _491  and  _494
REMARK  198  A    between atoms: _494  and  _495
REMARK  199  A    between atoms: _505  and  _507
REMARK  200  A    between atoms: _507  and  _508
REMARK  201  A    between atoms: _511  and  _513
REMARK  202  A    between atoms: _513  and  _514
REMARK  203  A    between atoms: _517  and  _519
REMARK  204  A    between atoms: _519  and  _520
REMARK  205  A    between atoms: _519  and  _522
REMARK  206  A    between atoms: _522  and  _523
REMARK  207  A    between atoms: _523  and  _524
REMARK  208  A    between atoms: _529  and  _531
REMARK  209  A    between atoms: _531  and  _532
REMARK  210  A    between atoms: _531  and  _534
REMARK  211  A    between atoms: _534  and  _535
REMARK  212  A    between atoms: _538  and  _540
REMARK  213  A    between atoms: _540  and  _541
REMARK  214  A    between atoms: _540  and  _543
REMARK  215  A    between atoms: _543  and  _544
REMARK  216  A    between atoms: _547  and  _549
REMARK  217  A    between atoms: _549  and  _550
REMARK  218  A    between atoms: _549  and  _552
REMARK  219  A    between atoms: _552  and  _553
REMARK  220  A    between atoms: _553  and  _554
REMARK  221  A    between atoms: _554  and  _555
REMARK  222  A    between atoms: _555  and  _556
REMARK  223  A    between atoms: _560  and  _562
REMARK  224  A    between atoms: _562  and  _563
REMARK  225  A    between atoms: _562  and  _565
REMARK  226  A    between atoms: _565  and  _566
REMARK  227  A    between atoms: _571  and  _573
REMARK  228  A    between atoms: _573  and  _574
REMARK  229  A    between atoms: _573  and  _576
REMARK  230  A    between atoms: _576  and  _577
REMARK  231  A    between atoms: _577  and  _578
REMARK  232  A    between atoms: _578  and  _579
REMARK  233  A    between atoms: _579  and  _580
REMARK  234  A    between atoms: _584  and  _586
REMARK  235  A    between atoms: _586  and  _587
REMARK  236  A    between atoms: _586  and  _589
REMARK  237  A    between atoms: _589  and  _590
REMARK  238  A    between atoms: _600  and  _602
REMARK  239  A    between atoms: _602  and  _603
REMARK  240  A    between atoms: _602  and  _605
REMARK  241  A    between atoms: _605  and  _606
REMARK  242  A    between atoms: _606  and  _607
REMARK  243  A    between atoms: _610  and  _612
REMARK  244  A    between atoms: _612  and  _613
REMARK  245  A    between atoms: _616  and  _618
REMARK  246  A    between atoms: _618  and  _619
REMARK  247  A    between atoms: _622  and  _624
REMARK  248  A    between atoms: _624  and  _625
REMARK  249  A    between atoms: _624  and  _627
REMARK  250  A    between atoms: _627  and  _628
REMARK  251  A    between atoms: _633  and  _635
REMARK  252  A    between atoms: _635  and  _636
REMARK  253  A    between atoms: _635  and  _638
REMARK  254  A    between atoms: _641  and  _643
REMARK  255  A    between atoms: _643  and  _644
REMARK  256  A    between atoms: _647  and  _649
REMARK  257  A    between atoms: _649  and  _650
REMARK  258  A    between atoms: _649  and  _652
REMARK  259  A    between atoms: _652  and  _653
REMARK  260  A    between atoms: _653  and  _654
REMARK  261  A    between atoms: _659  and  _661
REMARK  262  A    between atoms: _661  and  _662
REMARK  263  A    between atoms: _661  and  _664
REMARK  264  A    between atoms: _664  and  _665
REMARK  265  A    between atoms: _668  and  _670
REMARK  266  A    between atoms: _670  and  _671
REMARK  267  A    between atoms: _670  and  _673
REMARK  268  A    between atoms: _673  and  _674
REMARK  269  A    between atoms: _674  and  _675
REMARK  270  A    between atoms: _675  and  _676
REMARK  271  A    between atoms: _685  and  _687
REMARK  272  A    between atoms: _687  and  _688
REMARK  273  A    between atoms: _687  and  _690
REMARK  274  A    between atoms: _690  and  _691
REMARK  275  A    between atoms: _696  and  _697
REMARK  276  A    between atoms: _699  and  _701
REMARK  277  A    between atoms: _701  and  _702
REMARK  278  A    between atoms: _701  and  _704
REMARK  279  A    between atoms: _704  and  _705
REMARK  280  A    between atoms: _708  and  _710
REMARK  281  A    between atoms: _710  and  _711
REMARK  282  A    between atoms: _710  and  _713
REMARK  283  A    between atoms: _713  and  _714
REMARK  284  A    between atoms: _717  and  _719
REMARK  285  A    between atoms: _719  and  _720
REMARK  286  A    between atoms: _719  and  _722
REMARK  287  A    between atoms: _722  and  _723
REMARK  288  A    between atoms: _724  and  _726
REMARK  289  A    between atoms: _726  and  _727
REMARK  290  A    between atoms: _726  and  _729
REMARK  291  A    between atoms: _732  and  _734
REMARK  292  A    between atoms: _734  and  _735
REMARK  293  A    between atoms: _734  and  _737
REMARK  294  A    between atoms: _737  and  _738
REMARK  295  A    between atoms: _738  and  _739
REMARK  296  A    between atoms: _742  and  _744
REMARK  297  A    between atoms: _744  and  _745
REMARK  298  A    between atoms: _744  and  _747
REMARK  299  A    between atoms: _747  and  _748
REMARK  300  A    between atoms: _758  and  _760
REMARK  301  A    between atoms: _760  and  _761
REMARK  302  A    between atoms: _760  and  _763
REMARK  303  A    between atoms: _763  and  _764
REMARK  304  A    between atoms: _767  and  _769
REMARK  305  A    between atoms: _769  and  _770
REMARK  306  A    between atoms: _769  and  _772
REMARK  307  A    between atoms: _772  and  _773
REMARK  308  A    between atoms: _773  and  _774
REMARK  309  A    between atoms: _774  and  _775
REMARK  310  A    between atoms: _784  and  _786
REMARK  311  A    between atoms: _786  and  _787
REMARK  312  A    between atoms: _786  and  _789
REMARK  313  A    between atoms: _789  and  _790
REMARK  314  A    between atoms: _795  and  _796
REMARK                            x       y       z     vdW  Elec       q    Type
REMARK                         _______ _______ _______ _____ _____    ______ ____
ROOT
ATOM      1  CA  MET A   1      20.324   4.378  45.718  0.00  0.00    +0.134 C 
ENDROOT
BRANCH   1   2
ATOM      2  N   MET A   1      21.259   5.359  46.316  0.00  0.00    -0.239 NA
ATOM      3  H   MET A   1      22.140   5.031  46.762  0.00  0.00    +0.142 HD
ENDBRANCH   1   2
BRANCH   1   4
ATOM      4  C   MET A   1      19.034   4.448  46.510  0.00  0.00    +0.224 C 
ATOM      5  O   MET A   1      19.058   4.502  47.754  0.00  0.00    -0.287 OA
ENDBRANCH   1   4
BRANCH   1   6
ATOM      6  CB  MET A   1      20.895   2.954  45.762  0.00  0.00    +0.037 C 
BRANCH   6   7
ATOM      7  CG  MET A   1      20.059   1.918  44.959  0.00  0.00    +0.059 C 
BRANCH   7   8
ATOM      8  SD  MET A   1      20.246   2.040  43.170  0.00  0.00    -0.139 S 
ATOM      9  CE  MET A   1      21.182   0.543  42.838  0.00  0.00    +0.069 C 
ENDBRANCH   7   8
ENDBRANCH   6   7
ENDBRANCH   1   6
TORSDOF 5
REMARK  Name = ../refined-set-2016/3qfd/3qfd_pocket.pdb
REMARK  314 active torsions:
REMARK  status: ('A' for Active; 'I' for Inactive)
REMARK    1  A    between atoms: _1  and  _3
REMARK    2  A    between atoms: _3  and  _4
REMARK    3  A    between atoms: _3  and  _6
REMARK    4  A    between atoms: _6  and  _7
REMARK    5  A    between atoms: _7  and  _8
REMARK    6  A    between atoms: _10  and  _12
REMARK    7  A    between atoms: _12  and  _13
REMARK    8  A    between atoms: _12  and  _15
REMARK    9  A    between atoms: _15  and  _16
REMARK   10  A    between atoms: _16  and  _17
REMARK   11  A    between atoms: _17  and  _18
REMARK   12  A    between atoms: _27  and  _29
REMARK   13  A    between atoms: _29  and  _30
REMARK   14  A    between atoms: _29  and  _32
REMARK   15  A    between atoms: _32  and  _33
REMARK   16  A    between atoms: _38  and  _39
REMARK   17  A    between atoms: _41  and  _43
REMARK   18  A    between atoms: _43  and  _44
REMARK   19  A    between atoms: _43  and  _46
REMARK   20  A    between atoms: _46  and  _47
REMARK   21  A    between atoms: _53  and  _55
REMARK   22  A    between atoms: _55  and  _56
REMARK   23  A    between atoms: _55  and  _58
REMARK   24  A    between atoms: _58  and  _59
REMARK   25  A    between atoms: _65  and  _67
REMARK   26  A    between atoms: _67  and  _68
REMARK   27  A    between atoms: _71  and  _73
REMARK   28  A    between atoms: _73  and  _74
REMARK   29  A    between atoms: _73  and  _76
REMARK   30  A    between atoms: _79  and  _81
REMARK   31  A    between atoms: _81  and  _82
REMARK   32  A    between atoms: _84  and  _86
REMARK   33  A    between atoms: _86  and  _87
REMARK   34  A    between atoms: _86  and  _89
REMARK   35  A    between atoms: _92  and  _94
REMARK   36  A    between atoms: _94  and  _95
REMARK   37  A    between atoms: _94  and  _97
REMARK   38  A    between atoms: _97  and  _98
REMARK   39  A    between atoms: _104  and  _106
REMARK   40  A    between atoms: _106  and  _107
REMARK   41  A    between atoms: _106  and  _109
REMARK   42  A    between atoms: _112  and  _114
REMARK   43  A    between atoms: _114  and  _115
REMARK   44  A    between atoms: _114  and  _117
REMARK   45  A    between atoms: _117  and  _118
REMARK   46  A    between atoms: _118  and  _119
REMARK   47  A    between atoms: _121  and  _123
REMARK   48  A    between atoms: _123  and  _124
REMARK   49  A    between atoms: _123  and  _126
REMARK   50  A    between atoms: _126  and  _127
REMARK   51  A    between atoms: _130  and  _132
REMARK   52  A    between atoms: _132  and  _133
REMARK   53  A    between atoms: _132  and  _135
REMARK   54  A    between atoms: _135  and  _136
REMARK   55  A    between atoms: _136  and  _137
REMARK   56  A    between atoms: _140  and  _142
REMARK   57  A    between atoms: _142  and  _143
REMARK   58  A    between atoms: _142  and  _145
REMARK   59  A    between atoms: _145  and  _146
REMARK   60  A    between atoms: _151  and  _152
REMARK   61  A    between atoms: _154  and  _156
REMARK   62  A    between atoms: _156  and  _157
REMARK   63  A    between atoms: _159  and  _161
REMARK   64  A    between atoms: _161  and  _162
REMARK   65  A    between atoms: _161  and  _164
REMARK   66  A    between atoms: _164  and  _165
REMARK   67  A    between atoms: _165  and  _166
REMARK   68  A    between atoms: _169  and  _171
REMARK   69  A    between atoms: _171  and  _172
REMARK   70  A    between atoms: _171  and  _174
REMARK   71  A    between atoms: _174  and  _175
REMARK   72  A    between atoms: _178  and  _180
REMARK   73  A    between atoms: _180  and  _181
REMARK   74  A    between atoms: _180  and  _183
REMARK   75  A    between atoms: _183  and  _184
REMARK   76  A    between atoms: _184  and  _185
REMARK   77  A    between atoms: _185  and  _186
REMARK   78  A    between atoms: _195  and  _197
REMARK   79  A    between atoms: _197  and  _198
REMARK   80  A    between atoms: _197  and  _200
REMARK   81  A    between atoms: _200  and  _201
REMARK   82  A    between atoms: _201  and  _202
REMARK   83  A    between atoms: _202  and  _203
REMARK   84  A    between atoms: _203  and  _204
REMARK   85  A    between atoms: _208  and  _210
REMARK   86  A    between atoms: _210  and  _211
REMARK   87  A    between atoms: _210  and  _213
REMARK   88  A    between atoms: _216  and  _218
REMARK   89  A    between atoms: _218  and  _219
REMARK   90  A    between atoms: _222  and  _224
REMARK   91  A    between atoms: _224  and  _225
REMARK   92  A    between atoms: _224  and  _227
REMARK   93  A    between atoms: _227  and  _228
REMARK   94  A    between atoms: _233  and  _235
REMARK   95  A    between atoms: _235  and  _236
REMARK   96  A    between atoms: _235  and  _238
REMARK   97  A    between atoms: _238  and  _239
REMARK   98  A    between atoms: _241  and  _243
REMARK   99  A    between atoms: _243  and  _244
REMARK  100  A    between atoms: _243  and  _246
REMARK  101  A    between atoms: _246  and  _247
REMARK  102  A    between atoms: _247  and  _248
REMARK  103  A    between atoms: _253  and  _255
REMARK  104  A    between atoms: _255  and  _256
REMARK  105  A    between atoms: _255  and  _258
REMARK  106  A    between atoms: _258  and  _259
REMARK  107  A    between atoms: _262  and  _264
REMARK  108  A    between atoms: _264  and  _265
REMARK  109  A    between atoms: _264  and  _267
REMARK  110  A    between atoms: _267  and  _268
REMARK  111  A    between atoms: _273  and  _275
REMARK  112  A    between atoms: _275  and  _276
REMARK  113  A    between atoms: _275  and  _278
REMARK  114  A    between atoms: _278  and  _279
REMARK  115  A    between atoms: _279  and  _280
REMARK  116  A    between atoms: _280  and  _281
REMARK  117  A    between atoms: _290  and  _292
REMARK  118  A    between atoms: _292  and  _293
REMARK  119  A    between atoms: _292  and  _295
REMARK  120  A    between atoms: _298  and  _300
REMARK  121  A    between atoms: _300  and  _301
REMARK  122  A    between atoms: _300  and  _303
REMARK  123  A    between atoms: _303  and  _304
REMARK  124  A    between atoms: _307  and  _309
REMARK  125  A    between atoms: _309  and  _310
REMARK  126  A    between atoms: _309  and  _312
REMARK  127  A    between atoms: _312  and  _313
REMARK  128  A    between atoms: _316  and  _318
REMARK  129  A    between atoms: _318  and  _319
REMARK  130  A    between atoms: _321  and  _323
REMARK  131  A    between atoms: _323  and  _324
REMARK  132  A    between atoms: _323  and  _326
REMARK  133  A    between atoms: _326  and  _327
REMARK  134  A    between atoms: _330  and  _332
REMARK  135  A    between atoms: _332  and  _333
REMARK  136  A    between atoms: _332  and  _335
REMARK  137  A    between atoms: _335  and  _336
REMARK  138  A    between atoms: _339  and  _341
REMARK  139  A    between atoms: _341  and  _342
REMARK  140  A    between atoms: _341  and  _344
REMARK  141  A    between atoms: _344  and  _345
REMARK  142  A    between atoms: _345  and  _346
REMARK  143  A    between atoms: _346  and  _347
REMARK  144  A    between atoms: _356  and  _358
REMARK  145  A    between atoms: _358  and  _359
REMARK  146  A    between atoms: _358  and  _361
REMARK  147  A    between atoms: _361  and  _362
REMARK  148  A    between atoms: _367  and  _368
REMARK  149  A    between atoms: _370  and  _372
REMARK  150  A    between atoms: _372  and  _373
REMARK  151  A    between atoms: _372  and  _375
REMARK  152  A    between atoms: _378  and  _380
REMARK  153  A    between atoms: _380  and  _381
REMARK  154  A    between atoms: _380  and  _383
REMARK  155  A    between atoms: _383  and  _384
REMARK  156  A    between atoms: _384  and  _385
REMARK  157  A    between atoms: _385  and  _386
REMARK  158  A    between atoms: _395  and  _397
REMARK  159  A    between atoms: _397  and  _398
REMARK  160  A    between atoms: _397  and  _400
REMARK  161  A    between atoms: _400  and  _401
REMARK  162  A    between atoms: _406  and  _407
REMARK  163  A    between atoms: _409  and  _411
REMARK  164  A    between atoms: _411  and  _412
REMARK  165  A    between atoms: _414  and  _416
REMARK  166  A    between atoms: _416  and  _417
REMARK  167  A    between atoms: _416  and  _419
REMARK  168  A    between atoms: _419  and  _420
REMARK  169  A    between atoms: _420  and  _723
REMARK  170  A    between atoms: _421  and  _423
REMARK  171  A    between atoms: _423  and  _424
REMARK  172  A    between atoms: _423  and  _426
REMARK  173  A    between atoms: _426  and  _427
REMARK  174  A    between atoms: _432  and  _434
REMARK  175  A    between atoms: _434  and  _435
REMARK  176  A    between atoms: _434  and  _437
REMARK  177  A    between atoms: _437  and  _438
REMARK  178  A    between atoms: _443  and  _444
REMARK  179  A    between atoms: _446  and  _448
REMARK  180  A    between atoms: _448  and  _449
REMARK  181  A    between atoms: _452  and  _454
REMARK  182  A    between atoms: _454  and  _455
REMARK  183  A    between atoms: _454  and  _457
REMARK  184  A    between atoms: _457  and  _458
REMARK  185  A    between atoms: _463  and  _464
REMARK  186  A    between atoms: _466  and  _468
REMARK  187  A    between atoms: _468  and  _469
REMARK  188  A    between atoms: _468  and  _471
REMARK  189  A    between atoms: _471  and  _472
REMARK  190  A    between atoms: _477  and  _478
REMARK  191  A    between atoms: _480  and  _482
REMARK  192  A    between atoms: _482  and  _483
REMARK  193  A    between atoms: _482  and  _485
REMARK  194  A    between atoms: _485  and  _486
REMARK  195  A    between atoms: _489  and  _491
REMARK  196  A    between atoms: _491  and  _492
REMARK  197  A    between atoms: _491  and  _494
REMARK  198  A    between atoms: _494  and  _495
REMARK  199  A    between atoms: _505  and  _507
REMARK  200  A    between atoms: _507  and  _508
REMARK  201  A    between atoms: _511  and  _513
REMARK  202  A    between atoms: _513  and  _514
REMARK  203  A    between atoms: _517  and  _519
REMARK  204  A    between atoms: _519  and  _520
REMARK  205  A    between atoms: _519  and  _522
REMARK  206  A    between atoms: _522  and  _523
REMARK  207  A    between atoms: _523  and  _524
REMARK  208  A    between atoms: _529  and  _531
REMARK  209  A    between atoms: _531  and  _532
REMARK  210  A    between atoms: _531  and  _534
REMARK  211  A    between atoms: _534  and  _535
REMARK  212  A    between atoms: _538  and  _540
REMARK  213  A    between atoms: _540  and  _541
REMARK  214  A    between atoms: _540  and  _543
REMARK  215  A    between atoms: _543  and  _544
REMARK  216  A    between atoms: _547  and  _549
REMARK  217  A    between atoms: _549  and  _550
REMARK  218  A    between atoms: _549  and  _552
REMARK  219  A    between atoms: _552  and  _553
REMARK  220  A    between atoms: _553  and  _554
REMARK  221  A    between atoms: _554  and  _555
REMARK  222  A    between atoms: _555  and  _556
REMARK  223  A    between atoms: _560  and  _562
REMARK  224  A    between atoms: _562  and  _563
REMARK  225  A    between atoms: _562  and  _565
REMARK  226  A    between atoms: _565  and  _566
REMARK  227  A    between atoms: _571  and  _573
REMARK  228  A    between atoms: _573  and  _574
REMARK  229  A    between atoms: _573  and  _576
REMARK  230  A    between atoms: _576  and  _577
REMARK  231  A    between atoms: _577  and  _578
REMARK  232  A    between atoms: _578  and  _579
REMARK  233  A    between atoms: _579  and  _580
REMARK  234  A    between atoms: _584  and  _586
REMARK  235  A    between atoms: _586  and  _587
REMARK  236  A    between atoms: _586  and  _589
REMARK  237  A    between atoms: _589  and  _590
REMARK  238  A    between atoms: _600  and  _602
REMARK  239  A    between atoms: _602  and  _603
REMARK  240  A    between atoms: _602  and  _605
REMARK  241  A    between atoms: _605  and  _606
REMARK  242  A    between atoms: _606  and  _607
REMARK  243  A    between atoms: _610  and  _612
REMARK  244  A    between atoms: _612  and  _613
REMARK  245  A    between atoms: _616  and  _618
REMARK  246  A    between atoms: _618  and  _619
REMARK  247  A    between atoms: _622  and  _624
REMARK  248  A    between atoms: _624  and  _625
REMARK  249  A    between atoms: _624  and  _627
REMARK  250  A    between atoms: _627  and  _628
REMARK  251  A    between atoms: _633  and  _635
REMARK  252  A    between atoms: _635  and  _636
REMARK  253  A    between atoms: _635  and  _638
REMARK  254  A    between atoms: _641  and  _643
REMARK  255  A    between atoms: _643  and  _644
REMARK  256  A    between atoms: _647  and  _649
REMARK  257  A    between atoms: _649  and  _650
REMARK  258  A    between atoms: _649  and  _652
REMARK  259  A    between atoms: _652  and  _653
REMARK  260  A    between atoms: _653  and  _654
REMARK  261  A    between atoms: _659  and  _661
REMARK  262  A    between atoms: _661  and  _662
REMARK  263  A    between atoms: _661  and  _664
REMARK  264  A    between atoms: _664  and  _665
REMARK  265  A    between atoms: _668  and  _670
REMARK  266  A    between atoms: _670  and  _671
REMARK  267  A    between atoms: _670  and  _673
REMARK  268  A    between atoms: _673  and  _674
REMARK  269  A    between atoms: _674  and  _675
REMARK  270  A    between atoms: _675  and  _676
REMARK  271  A    between atoms: _685  and  _687
REMARK  272  A    between atoms: _687  and  _688
REMARK  273  A    between atoms: _687  and  _690
REMARK  274  A    between atoms: _690  and  _691
REMARK  275  A    between atoms: _696  and  _697
REMARK  276  A    between atoms: _699  and  _701
REMARK  277  A    between atoms: _701  and  _702
REMARK  278  A    between atoms: _701  and  _704
REMARK  279  A    between atoms: _704  and  _705
REMARK  280  A    between atoms: _708  and  _710
REMARK  281  A    between atoms: _710  and  _711
REMARK  282  A    between atoms: _710  and  _713
REMARK  283  A    between atoms: _713  and  _714
REMARK  284  A    between atoms: _717  and  _719
REMARK  285  A    between atoms: _719  and  _720
REMARK  286  A    between atoms: _719  and  _722
REMARK  287  A    between atoms: _722  and  _723
REMARK  288  A    between atoms: _724  and  _726
REMARK  289  A    between atoms: _726  and  _727
REMARK  290  A    between atoms: _726  and  _729
REMARK  291  A    between atoms: _732  and  _734
REMARK  292  A    between atoms: _734  and  _735
REMARK  293  A    between atoms: _734  and  _737
REMARK  294  A    between atoms: _737  and  _738
REMARK  295  A    between atoms: _738  and  _739
REMARK  296  A    between atoms: _742  and  _744
REMARK  297  A    between atoms: _744  and  _745
REMARK  298  A    between atoms: _744  and  _747
REMARK  299  A    between atoms: _747  and  _748
REMARK  300  A    between atoms: _758  and  _760
REMARK  301  A    between atoms: _760  and  _761
REMARK  302  A    between atoms: _760  and  _763
REMARK  303  A    between atoms: _763  and  _764
REMARK  304  A    between atoms: _767  and  _769
REMARK  305  A    between atoms: _769  and  _770
REMARK  306  A    between atoms: _769  and  _772
REMARK  307  A    between atoms: _772  and  _773
REMARK  308  A    between atoms: _773  and  _774
REMARK  309  A    between atoms: _774  and  _775
REMARK  310  A    between atoms: _784  and  _786
REMARK  311  A    between atoms: _786  and  _787
REMARK  312  A    between atoms: _786  and  _789
REMARK  313  A    between atoms: _789  and  _790
REMARK  314  A    between atoms: _795  and  _796
REMARK                            x       y       z     vdW  Elec       q    Type
REMARK                         _______ _______ _______ _____ _____    ______ ____
ROOT
ATOM      1  CA  ILE A   1      12.370  -3.260  48.833  0.00  0.00    +0.133 C 
ENDROOT
BRANCH   1   2
ATOM      2  N   ILE A   1      10.909  -3.396  48.627  0.00  0.00    -0.239 NA
ATOM      3  H   ILE A   1      10.405  -2.733  48.003  0.00  0.00    +0.142 HD
ENDBRANCH   1   2
BRANCH   1   4
ATOM      4  C   ILE A   1      12.660  -2.331  50.021  0.00  0.00    +0.224 C 
ATOM      5  O   ILE A   1      13.772  -2.286  50.534  0.00  0.00    -0.287 OA
ENDBRANCH   1   4
BRANCH   1   6
ATOM      6  CB  ILE A   1      13.078  -2.739  47.545  0.00  0.00    +0.023 C 
ATOM      7  CG2 ILE A   1      12.842  -1.278  47.331  0.00  0.00    +0.002 C 
BRANCH   6   8
ATOM      8  CG1 ILE A   1      14.585  -2.992  47.593  0.00  0.00    +0.002 C 
ATOM      9  CD1 ILE A   1      14.934  -4.439  47.424  0.00  0.00    +0.000 C 
ENDBRANCH   6   8
ENDBRANCH   1   6
TORSDOF 4
REMARK  Name = ../refined-set-2016/3qfd/3qfd_pocket.pdb
REMARK  314 active torsions:
REMARK  status: ('A' for Active; 'I' for Inactive)
REMARK    1  A    between atoms: _1  and  _3
REMARK    2  A    between atoms: _3  and  _4
REMARK    3  A    between atoms: _3  and  _6
REMARK    4  A    between atoms: _6  and  _7
REMARK    5  A    between atoms: _7  and  _8
REMARK    6  A    between atoms: _10  and  _12
REMARK    7  A    between atoms: _12  and  _13
REMARK    8  A    between atoms: _12  and  _15
REMARK    9  A    between atoms: _15  and  _16
REMARK   10  A    between atoms: _16  and  _17
REMARK   11  A    between atoms: _17  and  _18
REMARK   12  A    between atoms: _27  and  _29
REMARK   13  A    between atoms: _29  and  _30
REMARK   14  A    between atoms: _29  and  _32
REMARK   15  A    between atoms: _32  and  _33
REMARK   16  A    between atoms: _38  and  _39
REMARK   17  A    between atoms: _41  and  _43
REMARK   18  A    between atoms: _43  and  _44
REMARK   19  A    between atoms: _43  and  _46
REMARK   20  A    between atoms: _46  and  _47
REMARK   21  A    between atoms: _53  and  _55
REMARK   22  A    between atoms: _55  and  _56
REMARK   23  A    between atoms: _55  and  _58
REMARK   24  A    between atoms: _58  and  _59
REMARK   25  A    between atoms: _65  and  _67
REMARK   26  A    between atoms: _67  and  _68
REMARK   27  A    between atoms: _71  and  _73
REMARK   28  A    between atoms: _73  and  _74
REMARK   29  A    between atoms: _73  and  _76
REMARK   30  A    between atoms: _79  and  _81
REMARK   31  A    between atoms: _81  and  _82
REMARK   32  A    between atoms: _84  and  _86
REMARK   33  A    between atoms: _86  and  _87
REMARK   34  A    between atoms: _86  and  _89
REMARK   35  A    between atoms: _92  and  _94
REMARK   36  A    between atoms: _94  and  _95
REMARK   37  A    between atoms: _94  and  _97
REMARK   38  A    between atoms: _97  and  _98
REMARK   39  A    between atoms: _104  and  _106
REMARK   40  A    between atoms: _106  and  _107
REMARK   41  A    between atoms: _106  and  _109
REMARK   42  A    between atoms: _112  and  _114
REMARK   43  A    between atoms: _114  and  _115
REMARK   44  A    between atoms: _114  and  _117
REMARK   45  A    between atoms: _117  and  _118
REMARK   46  A    between atoms: _118  and  _119
REMARK   47  A    between atoms: _121  and  _123
REMARK   48  A    between atoms: _123  and  _124
REMARK   49  A    between atoms: _123  and  _126
REMARK   50  A    between atoms: _126  and  _127
REMARK   51  A    between atoms: _130  and  _132
REMARK   52  A    between atoms: _132  and  _133
REMARK   53  A    between atoms: _132  and  _135
REMARK   54  A    between atoms: _135  and  _136
REMARK   55  A    between atoms: _136  and  _137
REMARK   56  A    between atoms: _140  and  _142
REMARK   57  A    between atoms: _142  and  _143
REMARK   58  A    between atoms: _142  and  _145
REMARK   59  A    between atoms: _145  and  _146
REMARK   60  A    between atoms: _151  and  _152
REMARK   61  A    between atoms: _154  and  _156
REMARK   62  A    between atoms: _156  and  _157
REMARK   63  A    between atoms: _159  and  _161
REMARK   64  A    between atoms: _161  and  _162
REMARK   65  A    between atoms: _161  and  _164
REMARK   66  A    between atoms: _164  and  _165
REMARK   67  A    between atoms: _165  and  _166
REMARK   68  A    between atoms: _169  and  _171
REMARK   69  A    between atoms: _171  and  _172
REMARK   70  A    between atoms: _171  and  _174
REMARK   71  A    between atoms: _174  and  _175
REMARK   72  A    between atoms: _178  and  _180
REMARK   73  A    between atoms: _180  and  _181
REMARK   74  A    between atoms: _180  and  _183
REMARK   75  A    between atoms: _183  and  _184
REMARK   76  A    between atoms: _184  and  _185
REMARK   77  A    between atoms: _185  and  _186
REMARK   78  A    between atoms: _195  and  _197
REMARK   79  A    between atoms: _197  and  _198
REMARK   80  A    between atoms: _197  and  _200
REMARK   81  A    between atoms: _200  and  _201
REMARK   82  A    between atoms: _201  and  _202
REMARK   83  A    between atoms: _202  and  _203
REMARK   84  A    between atoms: _203  and  _204
REMARK   85  A    between atoms: _208  and  _210
REMARK   86  A    between atoms: _210  and  _211
REMARK   87  A    between atoms: _210  and  _213
REMARK   88  A    between atoms: _216  and  _218
REMARK   89  A    between atoms: _218  and  _219
REMARK   90  A    between atoms: _222  and  _224
REMARK   91  A    between atoms: _224  and  _225
REMARK   92  A    between atoms: _224  and  _227
REMARK   93  A    between atoms: _227  and  _228
REMARK   94  A    between atoms: _233  and  _235
REMARK   95  A    between atoms: _235  and  _236
REMARK   96  A    between atoms: _235  and  _238
REMARK   97  A    between atoms: _238  and  _239
REMARK   98  A    between atoms: _241  and  _243
REMARK   99  A    between atoms: _243  and  _244
REMARK  100  A    between atoms: _243  and  _246
REMARK  101  A    between atoms: _246  and  _247
REMARK  102  A    between atoms: _247  and  _248
REMARK  103  A    between atoms: _253  and  _255
REMARK  104  A    between atoms: _255  and  _256
REMARK  105  A    between atoms: _255  and  _258
REMARK  106  A    between atoms: _258  and  _259
REMARK  107  A    between atoms: _262  and  _264
REMARK  108  A    between atoms: _264  and  _265
REMARK  109  A    between atoms: _264  and  _267
REMARK  110  A    between atoms: _267  and  _268
REMARK  111  A    between atoms: _273  and  _275
REMARK  112  A    between atoms: _275  and  _276
REMARK  113  A    between atoms: _275  and  _278
REMARK  114  A    between atoms: _278  and  _279
REMARK  115  A    between atoms: _279  and  _280
REMARK  116  A    between atoms: _280  and  _281
REMARK  117  A    between atoms: _290  and  _292
REMARK  118  A    between atoms: _292  and  _293
REMARK  119  A    between atoms: _292  and  _295
REMARK  120  A    between atoms: _298  and  _300
REMARK  121  A    between atoms: _300  and  _301
REMARK  122  A    between atoms: _300  and  _303
REMARK  123  A    between atoms: _303  and  _304
REMARK  124  A    between atoms: _307  and  _309
REMARK  125  A    between atoms: _309  and  _310
REMARK  126  A    between atoms: _309  and  _312
REMARK  127  A    between atoms: _312  and  _313
REMARK  128  A    between atoms: _316  and  _318
REMARK  129  A    between atoms: _318  and  _319
REMARK  130  A    between atoms: _321  and  _323
REMARK  131  A    between atoms: _323  and  _324
REMARK  132  A    between atoms: _323  and  _326
REMARK  133  A    between atoms: _326  and  _327
REMARK  134  A    between atoms: _330  and  _332
REMARK  135  A    between atoms: _332  and  _333
REMARK  136  A    between atoms: _332  and  _335
REMARK  137  A    between atoms: _335  and  _336
REMARK  138  A    between atoms: _339  and  _341
REMARK  139  A    between atoms: _341  and  _342
REMARK  140  A    between atoms: _341  and  _344
REMARK  141  A    between atoms: _344  and  _345
REMARK  142  A    between atoms: _345  and  _346
REMARK  143  A    between atoms: _346  and  _347
REMARK  144  A    between atoms: _356  and  _358
REMARK  145  A    between atoms: _358  and  _359
REMARK  146  A    between atoms: _358  and  _361
REMARK  147  A    between atoms: _361  and  _362
REMARK  148  A    between atoms: _367  and  _368
REMARK  149  A    between atoms: _370  and  _372
REMARK  150  A    between atoms: _372  and  _373
REMARK  151  A    between atoms: _372  and  _375
REMARK  152  A    between atoms: _378  and  _380
REMARK  153  A    between atoms: _380  and  _381
REMARK  154  A    between atoms: _380  and  _383
REMARK  155  A    between atoms: _383  and  _384
REMARK  156  A    between atoms: _384  and  _385
REMARK  157  A    between atoms: _385  and  _386
REMARK  158  A    between atoms: _395  and  _397
REMARK  159  A    between atoms: _397  and  _398
REMARK  160  A    between atoms: _397  and  _400
REMARK  161  A    between atoms: _400  and  _401
REMARK  162  A    between atoms: _406  and  _407
REMARK  163  A    between atoms: _409  and  _411
REMARK  164  A    between atoms: _411  and  _412
REMARK  165  A    between atoms: _414  and  _416
REMARK  166  A    between atoms: _416  and  _417
REMARK  167  A    between atoms: _416  and  _419
REMARK  168  A    between atoms: _419  and  _420
REMARK  169  A    between atoms: _420  and  _723
REMARK  170  A    between atoms: _421  and  _423
REMARK  171  A    between atoms: _423  and  _424
REMARK  172  A    between atoms: _423  and  _426
REMARK  173  A    between atoms: _426  and  _427
REMARK  174  A    between atoms: _432  and  _434
REMARK  175  A    between atoms: _434  and  _435
REMARK  176  A    between atoms: _434  and  _437
REMARK  177  A    between atoms: _437  and  _438
REMARK  178  A    between atoms: _443  and  _444
REMARK  179  A    between atoms: _446  and  _448
REMARK  180  A    between atoms: _448  and  _449
REMARK  181  A    between atoms: _452  and  _454
REMARK  182  A    between atoms: _454  and  _455
REMARK  183  A    between atoms: _454  and  _457
REMARK  184  A    between atoms: _457  and  _458
REMARK  185  A    between atoms: _463  and  _464
REMARK  186  A    between atoms: _466  and  _468
REMARK  187  A    between atoms: _468  and  _469
REMARK  188  A    between atoms: _468  and  _471
REMARK  189  A    between atoms: _471  and  _472
REMARK  190  A    between atoms: _477  and  _478
REMARK  191  A    between atoms: _480  and  _482
REMARK  192  A    between atoms: _482  and  _483
REMARK  193  A    between atoms: _482  and  _485
REMARK  194  A    between atoms: _485  and  _486
REMARK  195  A    between atoms: _489  and  _491
REMARK  196  A    between atoms: _491  and  _492
REMARK  197  A    between atoms: _491  and  _494
REMARK  198  A    between atoms: _494  and  _495
REMARK  199  A    between atoms: _505  and  _507
REMARK  200  A    between atoms: _507  and  _508
REMARK  201  A    between atoms: _511  and  _513
REMARK  202  A    between atoms: _513  and  _514
REMARK  203  A    between atoms: _517  and  _519
REMARK  204  A    between atoms: _519  and  _520
REMARK  205  A    between atoms: _519  and  _522
REMARK  206  A    between atoms: _522  and  _523
REMARK  207  A    between atoms: _523  and  _524
REMARK  208  A    between atoms: _529  and  _531
REMARK  209  A    between atoms: _531  and  _532
REMARK  210  A    between atoms: _531  and  _534
REMARK  211  A    between atoms: _534  and  _535
REMARK  212  A    between atoms: _538  and  _540
REMARK  213  A    between atoms: _540  and  _541
REMARK  214  A    between atoms: _540  and  _543
REMARK  215  A    between atoms: _543  and  _544
REMARK  216  A    between atoms: _547  and  _549
REMARK  217  A    between atoms: _549  and  _550
REMARK  218  A    between atoms: _549  and  _552
REMARK  219  A    between atoms: _552  and  _553
REMARK  220  A    between atoms: _553  and  _554
REMARK  221  A    between atoms: _554  and  _555
REMARK  222  A    between atoms: _555  and  _556
REMARK  223  A    between atoms: _560  and  _562
REMARK  224  A    between atoms: _562  and  _563
REMARK  225  A    between atoms: _562  and  _565
REMARK  226  A    between atoms: _565  and  _566
REMARK  227  A    between atoms: _571  and  _573
REMARK  228  A    between atoms: _573  and  _574
REMARK  229  A    between atoms: _573  and  _576
REMARK  230  A    between atoms: _576  and  _577
REMARK  231  A    between atoms: _577  and  _578
REMARK  232  A    between atoms: _578  and  _579
REMARK  233  A    between atoms: _579  and  _580
REMARK  234  A    between atoms: _584  and  _586
REMARK  235  A    between atoms: _586  and  _587
REMARK  236  A    between atoms: _586  and  _589
REMARK  237  A    between atoms: _589  and  _590
REMARK  238  A    between atoms: _600  and  _602
REMARK  239  A    between atoms: _602  and  _603
REMARK  240  A    between atoms: _602  and  _605
REMARK  241  A    between atoms: _605  and  _606
REMARK  242  A    between atoms: _606  and  _607
REMARK  243  A    between atoms: _610  and  _612
REMARK  244  A    between atoms: _612  and  _613
REMARK  245  A    between atoms: _616  and  _618
REMARK  246  A    between atoms: _618  and  _619
REMARK  247  A    between atoms: _622  and  _624
REMARK  248  A    between atoms: _624  and  _625
REMARK  249  A    between atoms: _624  and  _627
REMARK  250  A    between atoms: _627  and  _628
REMARK  251  A    between atoms: _633  and  _635
REMARK  252  A    between atoms: _635  and  _636
REMARK  253  A    between atoms: _635  and  _638
REMARK  254  A    between atoms: _641  and  _643
REMARK  255  A    between atoms: _643  and  _644
REMARK  256  A    between atoms: _647  and  _649
REMARK  257  A    between atoms: _649  and  _650
REMARK  258  A    between atoms: _649  and  _652
REMARK  259  A    between atoms: _652  and  _653
REMARK  260  A    between atoms: _653  and  _654
REMARK  261  A    between atoms: _659  and  _661
REMARK  262  A    between atoms: _661  and  _662
REMARK  263  A    between atoms: _661  and  _664
REMARK  264  A    between atoms: _664  and  _665
REMARK  265  A    between atoms: _668  and  _670
REMARK  266  A    between atoms: _670  and  _671
REMARK  267  A    between atoms: _670  and  _673
REMARK  268  A    between atoms: _673  and  _674
REMARK  269  A    between atoms: _674  and  _675
REMARK  270  A    between atoms: _675  and  _676
REMARK  271  A    between atoms: _685  and  _687
REMARK  272  A    between atoms: _687  and  _688
REMARK  273  A    between atoms: _687  and  _690
REMARK  274  A    between atoms: _690  and  _691
REMARK  275  A    between atoms: _696  and  _697
REMARK  276  A    between atoms: _699  and  _701
REMARK  277  A    between atoms: _701  and  _702
REMARK  278  A    between atoms: _701  and  _704
REMARK  279  A    between atoms: _704  and  _705
REMARK  280  A    between atoms: _708  and  _710
REMARK  281  A    between atoms: _710  and  _711
REMARK  282  A    between atoms: _710  and  _713
REMARK  283  A    between atoms: _713  and  _714
REMARK  284  A    between atoms: _717  and  _719
REMARK  285  A    between atoms: _719  and  _720
REMARK  286  A    between atoms: _719  and  _722
REMARK  287  A    between atoms: _722  and  _723
REMARK  288  A    between atoms: _724  and  _726
REMARK  289  A    between atoms: _726  and  _727
REMARK  290  A    between atoms: _726  and  _729
REMARK  291  A    between atoms: _732  and  _734
REMARK  292  A    between atoms: _734  and  _735
REMARK  293  A    between atoms: _734  and  _737
REMARK  294  A    between atoms: _737  and  _738
REMARK  295  A    between atoms: _738  and  _739
REMARK  296  A    between atoms: _742  and  _744
REMARK  297  A    between atoms: _744  and  _745
REMARK  298  A    between atoms: _744  and  _747
REMARK  299  A    between atoms: _747  and  _748
REMARK  300  A    between atoms: _758  and  _760
REMARK  301  A    between atoms: _760  and  _761
REMARK  302  A    between atoms: _760  and  _763
REMARK  303  A    between atoms: _763  and  _764
REMARK  304  A    between atoms: _767  and  _769
REMARK  305  A    between atoms: _769  and  _770
REMARK  306  A    between atoms: _769  and  _772
REMARK  307  A    between atoms: _772  and  _773
REMARK  308  A    between atoms: _773  and  _774
REMARK  309  A    between atoms: _774  and  _775
REMARK  310  A    between atoms: _784  and  _786
REMARK  311  A    between atoms: _786  and  _787
REMARK  312  A    between atoms: _786  and  _789
REMARK  313  A    between atoms: _789  and  _790
REMARK  314  A    between atoms: _795  and  _796
REMARK                            x       y       z     vdW  Elec       q    Type
REMARK                         _______ _______ _______ _____ _____    ______ ____
ROOT
ATOM      1  CA  GLU A   1      15.937  -3.732  53.352  0.00  0.00    +0.134 C 
ENDROOT
BRANCH   1   2
ATOM      2  N   GLU A   1      14.519  -3.466  53.311  0.00  0.00    -0.239 NA
ATOM      3  H   GLU A   1      14.076  -3.193  52.411  0.00  0.00    +0.142 HD
ENDBRANCH   1   2
BRANCH   1   4
ATOM      4  C   GLU A   1      16.607  -2.725  54.269  0.00  0.00    +0.224 C 
ATOM      5  O   GLU A   1      16.221  -1.566  54.322  0.00  0.00    -0.287 OA
ENDBRANCH   1   4
BRANCH   1   6
ATOM      6  CB  GLU A   1      16.567  -3.683  51.968  0.00  0.00    +0.037 C 
BRANCH   6   7
ATOM      7  CG  GLU A   1      16.086  -4.735  50.953  0.00  0.00    +0.116 C 
BRANCH   7   8
ATOM      8  CD  GLU A   1      16.429  -6.175  51.276  0.00  0.00    +0.365 C 
ATOM      9  OE2 GLU A   1      17.273  -6.467  52.151  0.00  0.00    -0.246 OA
ATOM     10  OE1 GLU A   1      15.850  -7.052  50.602  0.00  0.00    -0.246 OA
ENDBRANCH   7   8
ENDBRANCH   6   7
ENDBRANCH   1   6
TORSDOF 5
REMARK  Name = ../refined-set-2016/3qfd/3qfd_pocket.pdb
REMARK  314 active torsions:
REMARK  status: ('A' for Active; 'I' for Inactive)
REMARK    1  A    between atoms: _1  and  _3
REMARK    2  A    between atoms: _3  and  _4
REMARK    3  A    between atoms: _3  and  _6
REMARK    4  A    between atoms: _6  and  _7
REMARK    5  A    between atoms: _7  and  _8
REMARK    6  A    between atoms: _10  and  _12
REMARK    7  A    between atoms: _12  and  _13
REMARK    8  A    between atoms: _12  and  _15
REMARK    9  A    between atoms: _15  and  _16
REMARK   10  A    between atoms: _16  and  _17
REMARK   11  A    between atoms: _17  and  _18
REMARK   12  A    between atoms: _27  and  _29
REMARK   13  A    between atoms: _29  and  _30
REMARK   14  A    between atoms: _29  and  _32
REMARK   15  A    between atoms: _32  and  _33
REMARK   16  A    between atoms: _38  and  _39
REMARK   17  A    between atoms: _41  and  _43
REMARK   18  A    between atoms: _43  and  _44
REMARK   19  A    between atoms: _43  and  _46
REMARK   20  A    between atoms: _46  and  _47
REMARK   21  A    between atoms: _53  and  _55
REMARK   22  A    between atoms: _55  and  _56
REMARK   23  A    between atoms: _55  and  _58
REMARK   24  A    between atoms: _58  and  _59
REMARK   25  A    between atoms: _65  and  _67
REMARK   26  A    between atoms: _67  and  _68
REMARK   27  A    between atoms: _71  and  _73
REMARK   28  A    between atoms: _73  and  _74
REMARK   29  A    between atoms: _73  and  _76
REMARK   30  A    between atoms: _79  and  _81
REMARK   31  A    between atoms: _81  and  _82
REMARK   32  A    between atoms: _84  and  _86
REMARK   33  A    between atoms: _86  and  _87
REMARK   34  A    between atoms: _86  and  _89
REMARK   35  A    between atoms: _92  and  _94
REMARK   36  A    between atoms: _94  and  _95
REMARK   37  A    between atoms: _94  and  _97
REMARK   38  A    between atoms: _97  and  _98
REMARK   39  A    between atoms: _104  and  _106
REMARK   40  A    between atoms: _106  and  _107
REMARK   41  A    between atoms: _106  and  _109
REMARK   42  A    between atoms: _112  and  _114
REMARK   43  A    between atoms: _114  and  _115
REMARK   44  A    between atoms: _114  and  _117
REMARK   45  A    between atoms: _117  and  _118
REMARK   46  A    between atoms: _118  and  _119
REMARK   47  A    between atoms: _121  and  _123
REMARK   48  A    between atoms: _123  and  _124
REMARK   49  A    between atoms: _123  and  _126
REMARK   50  A    between atoms: _126  and  _127
REMARK   51  A    between atoms: _130  and  _132
REMARK   52  A    between atoms: _132  and  _133
REMARK   53  A    between atoms: _132  and  _135
REMARK   54  A    between atoms: _135  and  _136
REMARK   55  A    between atoms: _136  and  _137
REMARK   56  A    between atoms: _140  and  _142
REMARK   57  A    between atoms: _142  and  _143
REMARK   58  A    between atoms: _142  and  _145
REMARK   59  A    between atoms: _145  and  _146
REMARK   60  A    between atoms: _151  and  _152
REMARK   61  A    between atoms: _154  and  _156
REMARK   62  A    between atoms: _156  and  _157
REMARK   63  A    between atoms: _159  and  _161
REMARK   64  A    between atoms: _161  and  _162
REMARK   65  A    between atoms: _161  and  _164
REMARK   66  A    between atoms: _164  and  _165
REMARK   67  A    between atoms: _165  and  _166
REMARK   68  A    between atoms: _169  and  _171
REMARK   69  A    between atoms: _171  and  _172
REMARK   70  A    between atoms: _171  and  _174
REMARK   71  A    between atoms: _174  and  _175
REMARK   72  A    between atoms: _178  and  _180
REMARK   73  A    between atoms: _180  and  _181
REMARK   74  A    between atoms: _180  and  _183
REMARK   75  A    between atoms: _183  and  _184
REMARK   76  A    between atoms: _184  and  _185
REMARK   77  A    between atoms: _185  and  _186
REMARK   78  A    between atoms: _195  and  _197
REMARK   79  A    between atoms: _197  and  _198
REMARK   80  A    between atoms: _197  and  _200
REMARK   81  A    between atoms: _200  and  _201
REMARK   82  A    between atoms: _201  and  _202
REMARK   83  A    between atoms: _202  and  _203
REMARK   84  A    between atoms: _203  and  _204
REMARK   85  A    between atoms: _208  and  _210
REMARK   86  A    between atoms: _210  and  _211
REMARK   87  A    between atoms: _210  and  _213
REMARK   88  A    between atoms: _216  and  _218
REMARK   89  A    between atoms: _218  and  _219
REMARK   90  A    between atoms: _222  and  _224
REMARK   91  A    between atoms: _224  and  _225
REMARK   92  A    between atoms: _224  and  _227
REMARK   93  A    between atoms: _227  and  _228
REMARK   94  A    between atoms: _233  and  _235
REMARK   95  A    between atoms: _235  and  _236
REMARK   96  A    between atoms: _235  and  _238
REMARK   97  A    between atoms: _238  and  _239
REMARK   98  A    between atoms: _241  and  _243
REMARK   99  A    between atoms: _243  and  _244
REMARK  100  A    between atoms: _243  and  _246
REMARK  101  A    between atoms: _246  and  _247
REMARK  102  A    between atoms: _247  and  _248
REMARK  103  A    between atoms: _253  and  _255
REMARK  104  A    between atoms: _255  and  _256
REMARK  105  A    between atoms: _255  and  _258
REMARK  106  A    between atoms: _258  and  _259
REMARK  107  A    between atoms: _262  and  _264
REMARK  108  A    between atoms: _264  and  _265
REMARK  109  A    between atoms: _264  and  _267
REMARK  110  A    between atoms: _267  and  _268
REMARK  111  A    between atoms: _273  and  _275
REMARK  112  A    between atoms: _275  and  _276
REMARK  113  A    between atoms: _275  and  _278
REMARK  114  A    between atoms: _278  and  _279
REMARK  115  A    between atoms: _279  and  _280
REMARK  116  A    between atoms: _280  and  _281
REMARK  117  A    between atoms: _290  and  _292
REMARK  118  A    between atoms: _292  and  _293
REMARK  119  A    between atoms: _292  and  _295
REMARK  120  A    between atoms: _298  and  _300
REMARK  121  A    between atoms: _300  and  _301
REMARK  122  A    between atoms: _300  and  _303
REMARK  123  A    between atoms: _303  and  _304
REMARK  124  A    between atoms: _307  and  _309
REMARK  125  A    between atoms: _309  and  _310
REMARK  126  A    between atoms: _309  and  _312
REMARK  127  A    between atoms: _312  and  _313
REMARK  128  A    between atoms: _316  and  _318
REMARK  129  A    between atoms: _318  and  _319
REMARK  130  A    between atoms: _321  and  _323
REMARK  131  A    between atoms: _323  and  _324
REMARK  132  A    between atoms: _323  and  _326
REMARK  133  A    between atoms: _326  and  _327
REMARK  134  A    between atoms: _330  and  _332
REMARK  135  A    between atoms: _332  and  _333
REMARK  136  A    between atoms: _332  and  _335
REMARK  137  A    between atoms: _335  and  _336
REMARK  138  A    between atoms: _339  and  _341
REMARK  139  A    between atoms: _341  and  _342
REMARK  140  A    between atoms: _341  and  _344
REMARK  141  A    between atoms: _344  and  _345
REMARK  142  A    between atoms: _345  and  _346
REMARK  143  A    between atoms: _346  and  _347
REMARK  144  A    between atoms: _356  and  _358
REMARK  145  A    between atoms: _358  and  _359
REMARK  146  A    between atoms: _358  and  _361
REMARK  147  A    between atoms: _361  and  _362
REMARK  148  A    between atoms: _367  and  _368
REMARK  149  A    between atoms: _370  and  _372
REMARK  150  A    between atoms: _372  and  _373
REMARK  151  A    between atoms: _372  and  _375
REMARK  152  A    between atoms: _378  and  _380
REMARK  153  A    between atoms: _380  and  _381
REMARK  154  A    between atoms: _380  and  _383
REMARK  155  A    between atoms: _383  and  _384
REMARK  156  A    between atoms: _384  and  _385
REMARK  157  A    between atoms: _385  and  _386
REMARK  158  A    between atoms: _395  and  _397
REMARK  159  A    between atoms: _397  and  _398
REMARK  160  A    between atoms: _397  and  _400
REMARK  161  A    between atoms: _400  and  _401
REMARK  162  A    between atoms: _406  and  _407
REMARK  163  A    between atoms: _409  and  _411
REMARK  164  A    between atoms: _411  and  _412
REMARK  165  A    between atoms: _414  and  _416
REMARK  166  A    between atoms: _416  and  _417
REMARK  167  A    between atoms: _416  and  _419
REMARK  168  A    between atoms: _419  and  _420
REMARK  169  A    between atoms: _420  and  _723
REMARK  170  A    between atoms: _421  and  _423
REMARK  171  A    between atoms: _423  and  _424
REMARK  172  A    between atoms: _423  and  _426
REMARK  173  A    between atoms: _426  and  _427
REMARK  174  A    between atoms: _432  and  _434
REMARK  175  A    between atoms: _434  and  _435
REMARK  176  A    between atoms: _434  and  _437
REMARK  177  A    between atoms: _437  and  _438
REMARK  178  A    between atoms: _443  and  _444
REMARK  179  A    between atoms: _446  and  _448
REMARK  180  A    between atoms: _448  and  _449
REMARK  181  A    between atoms: _452  and  _454
REMARK  182  A    between atoms: _454  and  _455
REMARK  183  A    between atoms: _454  and  _457
REMARK  184  A    between atoms: _457  and  _458
REMARK  185  A    between atoms: _463  and  _464
REMARK  186  A    between atoms: _466  and  _468
REMARK  187  A    between atoms: _468  and  _469
REMARK  188  A    between atoms: _468  and  _471
REMARK  189  A    between atoms: _471  and  _472
REMARK  190  A    between atoms: _477  and  _478
REMARK  191  A    between atoms: _480  and  _482
REMARK  192  A    between atoms: _482  and  _483
REMARK  193  A    between atoms: _482  and  _485
REMARK  194  A    between atoms: _485  and  _486
REMARK  195  A    between atoms: _489  and  _491
REMARK  196  A    between atoms: _491  and  _492
REMARK  197  A    between atoms: _491  and  _494
REMARK  198  A    between atoms: _494  and  _495
REMARK  199  A    between atoms: _505  and  _507
REMARK  200  A    between atoms: _507  and  _508
REMARK  201  A    between atoms: _511  and  _513
REMARK  202  A    between atoms: _513  and  _514
REMARK  203  A    between atoms: _517  and  _519
REMARK  204  A    between atoms: _519  and  _520
REMARK  205  A    between atoms: _519  and  _522
REMARK  206  A    between atoms: _522  and  _523
REMARK  207  A    between atoms: _523  and  _524
REMARK  208  A    between atoms: _529  and  _531
REMARK  209  A    between atoms: _531  and  _532
REMARK  210  A    between atoms: _531  and  _534
REMARK  211  A    between atoms: _534  and  _535
REMARK  212  A    between atoms: _538  and  _540
REMARK  213  A    between atoms: _540  and  _541
REMARK  214  A    between atoms: _540  and  _543
REMARK  215  A    between atoms: _543  and  _544
REMARK  216  A    between atoms: _547  and  _549
REMARK  217  A    between atoms: _549  and  _550
REMARK  218  A    between atoms: _549  and  _552
REMARK  219  A    between atoms: _552  and  _553
REMARK  220  A    between atoms: _553  and  _554
REMARK  221  A    between atoms: _554  and  _555
REMARK  222  A    between atoms: _555  and  _556
REMARK  223  A    between atoms: _560  and  _562
REMARK  224  A    between atoms: _562  and  _563
REMARK  225  A    between atoms: _562  and  _565
REMARK  226  A    between atoms: _565  and  _566
REMARK  227  A    between atoms: _571  and  _573
REMARK  228  A    between atoms: _573  and  _574
REMARK  229  A    between atoms: _573  and  _576
REMARK  230  A    between atoms: _576  and  _577
REMARK  231  A    between atoms: _577  and  _578
REMARK  232  A    between atoms: _578  and  _579
REMARK  233  A    between atoms: _579  and  _580
REMARK  234  A    between atoms: _584  and  _586
REMARK  235  A    between atoms: _586  and  _587
REMARK  236  A    between atoms: _586  and  _589
REMARK  237  A    between atoms: _589  and  _590
REMARK  238  A    between atoms: _600  and  _602
REMARK  239  A    between atoms: _602  and  _603
REMARK  240  A    between atoms: _602  and  _605
REMARK  241  A    between atoms: _605  and  _606
REMARK  242  A    between atoms: _606  and  _607
REMARK  243  A    between atoms: _610  and  _612
REMARK  244  A    between atoms: _612  and  _613
REMARK  245  A    between atoms: _616  and  _618
REMARK  246  A    between atoms: _618  and  _619
REMARK  247  A    between atoms: _622  and  _624
REMARK  248  A    between atoms: _624  and  _625
REMARK  249  A    between atoms: _624  and  _627
REMARK  250  A    between atoms: _627  and  _628
REMARK  251  A    between atoms: _633  and  _635
REMARK  252  A    between atoms: _635  and  _636
REMARK  253  A    between atoms: _635  and  _638
REMARK  254  A    between atoms: _641  and  _643
REMARK  255  A    between atoms: _643  and  _644
REMARK  256  A    between atoms: _647  and  _649
REMARK  257  A    between atoms: _649  and  _650
REMARK  258  A    between atoms: _649  and  _652
REMARK  259  A    between atoms: _652  and  _653
REMARK  260  A    between atoms: _653  and  _654
REMARK  261  A    between atoms: _659  and  _661
REMARK  262  A    between atoms: _661  and  _662
REMARK  263  A    between atoms: _661  and  _664
REMARK  264  A    between atoms: _664  and  _665
REMARK  265  A    between atoms: _668  and  _670
REMARK  266  A    between atoms: _670  and  _671
REMARK  267  A    between atoms: _670  and  _673
REMARK  268  A    between atoms: _673  and  _674
REMARK  269  A    between atoms: _674  and  _675
REMARK  270  A    between atoms: _675  and  _676
REMARK  271  A    between atoms: _685  and  _687
REMARK  272  A    between atoms: _687  and  _688
REMARK  273  A    between atoms: _687  and  _690
REMARK  274  A    between atoms: _690  and  _691
REMARK  275  A    between atoms: _696  and  _697
REMARK  276  A    between atoms: _699  and  _701
REMARK  277  A    between atoms: _701  and  _702
REMARK  278  A    between atoms: _701  and  _704
REMARK  279  A    between atoms: _704  and  _705
REMARK  280  A    between atoms: _708  and  _710
REMARK  281  A    between atoms: _710  and  _711
REMARK  282  A    between atoms: _710  and  _713
REMARK  283  A    between atoms: _713  and  _714
REMARK  284  A    between atoms: _717  and  _719
REMARK  285  A    between atoms: _719  and  _720
REMARK  286  A    between atoms: _719  and  _722
REMARK  287  A    between atoms: _722  and  _723
REMARK  288  A    between atoms: _724  and  _726
REMARK  289  A    between atoms: _726  and  _727
REMARK  290  A    between atoms: _726  and  _729
REMARK  291  A    between atoms: _732  and  _734
REMARK  292  A    between atoms: _734  and  _735
REMARK  293  A    between atoms: _734  and  _737
REMARK  294  A    between atoms: _737  and  _738
REMARK  295  A    between atoms: _738  and  _739
REMARK  296  A    between atoms: _742  and  _744
REMARK  297  A    between atoms: _744  and  _745
REMARK  298  A    between atoms: _744  and  _747
REMARK  299  A    between atoms: _747  and  _748
REMARK  300  A    between atoms: _758  and  _760
REMARK  301  A    between atoms: _760  and  _761
REMARK  302  A    between atoms: _760  and  _763
REMARK  303  A    between atoms: _763  and  _764
REMARK  304  A    between atoms: _767  and  _769
REMARK  305  A    between atoms: _769  and  _770
REMARK  306  A    between atoms: _769  and  _772
REMARK  307  A    between atoms: _772  and  _773
REMARK  308  A    between atoms: _773  and  _774
REMARK  309  A    between atoms: _774  and  _775
REMARK  310  A    between atoms: _784  and  _786
REMARK  311  A    between atoms: _786  and  _787
REMARK  312  A    between atoms: _786  and  _789
REMARK  313  A    between atoms: _789  and  _790
REMARK  314  A    between atoms: _795  and  _796
REMARK                            x       y       z     vdW  Elec       q    Type
REMARK                         _______ _______ _______ _____ _____    ______ ____
ROOT
ATOM      1  CG  TYR A   1      19.812  -3.496  50.409  0.00  0.00    -0.020 A 
ATOM      2  CD2 TYR A   1      19.069  -2.475  49.764  0.00  0.00    -0.001 A 
ATOM      3  CE2 TYR A   1      18.618  -2.632  48.443  0.00  0.00    +0.036 A 
ATOM      4  CZ  TYR A   1      18.881  -3.823  47.786  0.00  0.00    +0.134 A 
ATOM      5  CE1 TYR A   1      19.580  -4.840  48.392  0.00  0.00    +0.036 A 
ATOM      6  CD1 TYR A   1      20.052  -4.678  49.710  0.00  0.00    -0.001 A 
ENDROOT
BRANCH   4   7
ATOM      7  OH  TYR A   1      18.422  -3.995  46.513  0.00  0.00    -0.506 OA
ATOM      8  HH  TYR A   1      18.690  -4.890  46.185  0.00  0.00    +0.292 HD
ENDBRANCH   4   7
BRANCH   1   9
ATOM      9  CB  TYR A   1      20.319  -3.335  51.835  0.00  0.00    +0.051 C 
BRANCH   9  10
ATOM     10  CA  TYR A   1      21.757  -2.824  51.913  0.00  0.00    +0.137 C 
BRANCH  10  11
ATOM     11  N   TYR A   1      22.187  -2.677  53.280  0.00  0.00    -0.239 NA
ATOM     12  H   TYR A   1      21.516  -2.909  54.039  0.00  0.00    +0.142 HD
ENDBRANCH  10  11
BRANCH  10  13
ATOM     13  C   TYR A   1      21.856  -1.496  51.179  0.00  0.00    +0.224 C 
ATOM     14  O   TYR A   1      22.487  -1.433  50.132  0.00  0.00    -0.287 OA
ENDBRANCH  10  13
ENDBRANCH   9  10
ENDBRANCH   1   9
TORSDOF 5
REMARK  Name = ../refined-set-2016/3qfd/3qfd_pocket.pdb
REMARK  314 active torsions:
REMARK  status: ('A' for Active; 'I' for Inactive)
REMARK    1  A    between atoms: _1  and  _3
REMARK    2  A    between atoms: _3  and  _4
REMARK    3  A    between atoms: _3  and  _6
REMARK    4  A    between atoms: _6  and  _7
REMARK    5  A    between atoms: _7  and  _8
REMARK    6  A    between atoms: _10  and  _12
REMARK    7  A    between atoms: _12  and  _13
REMARK    8  A    between atoms: _12  and  _15
REMARK    9  A    between atoms: _15  and  _16
REMARK   10  A    between atoms: _16  and  _17
REMARK   11  A    between atoms: _17  and  _18
REMARK   12  A    between atoms: _27  and  _29
REMARK   13  A    between atoms: _29  and  _30
REMARK   14  A    between atoms: _29  and  _32
REMARK   15  A    between atoms: _32  and  _33
REMARK   16  A    between atoms: _38  and  _39
REMARK   17  A    between atoms: _41  and  _43
REMARK   18  A    between atoms: _43  and  _44
REMARK   19  A    between atoms: _43  and  _46
REMARK   20  A    between atoms: _46  and  _47
REMARK   21  A    between atoms: _53  and  _55
REMARK   22  A    between atoms: _55  and  _56
REMARK   23  A    between atoms: _55  and  _58
REMARK   24  A    between atoms: _58  and  _59
REMARK   25  A    between atoms: _65  and  _67
REMARK   26  A    between atoms: _67  and  _68
REMARK   27  A    between atoms: _71  and  _73
REMARK   28  A    between atoms: _73  and  _74
REMARK   29  A    between atoms: _73  and  _76
REMARK   30  A    between atoms: _79  and  _81
REMARK   31  A    between atoms: _81  and  _82
REMARK   32  A    between atoms: _84  and  _86
REMARK   33  A    between atoms: _86  and  _87
REMARK   34  A    between atoms: _86  and  _89
REMARK   35  A    between atoms: _92  and  _94
REMARK   36  A    between atoms: _94  and  _95
REMARK   37  A    between atoms: _94  and  _97
REMARK   38  A    between atoms: _97  and  _98
REMARK   39  A    between atoms: _104  and  _106
REMARK   40  A    between atoms: _106  and  _107
REMARK   41  A    between atoms: _106  and  _109
REMARK   42  A    between atoms: _112  and  _114
REMARK   43  A    between atoms: _114  and  _115
REMARK   44  A    between atoms: _114  and  _117
REMARK   45  A    between atoms: _117  and  _118
REMARK   46  A    between atoms: _118  and  _119
REMARK   47  A    between atoms: _121  and  _123
REMARK   48  A    between atoms: _123  and  _124
REMARK   49  A    between atoms: _123  and  _126
REMARK   50  A    between atoms: _126  and  _127
REMARK   51  A    between atoms: _130  and  _132
REMARK   52  A    between atoms: _132  and  _133
REMARK   53  A    between atoms: _132  and  _135
REMARK   54  A    between atoms: _135  and  _136
REMARK   55  A    between atoms: _136  and  _137
REMARK   56  A    between atoms: _140  and  _142
REMARK   57  A    between atoms: _142  and  _143
REMARK   58  A    between atoms: _142  and  _145
REMARK   59  A    between atoms: _145  and  _146
REMARK   60  A    between atoms: _151  and  _152
REMARK   61  A    between atoms: _154  and  _156
REMARK   62  A    between atoms: _156  and  _157
REMARK   63  A    between atoms: _159  and  _161
REMARK   64  A    between atoms: _161  and  _162
REMARK   65  A    between atoms: _161  and  _164
REMARK   66  A    between atoms: _164  and  _165
REMARK   67  A    between atoms: _165  and  _166
REMARK   68  A    between atoms: _169  and  _171
REMARK   69  A    between atoms: _171  and  _172
REMARK   70  A    between atoms: _171  and  _174
REMARK   71  A    between atoms: _174  and  _175
REMARK   72  A    between atoms: _178  and  _180
REMARK   73  A    between atoms: _180  and  _181
REMARK   74  A    between atoms: _180  and  _183
REMARK   75  A    between atoms: _183  and  _184
REMARK   76  A    between atoms: _184  and  _185
REMARK   77  A    between atoms: _185  and  _186
REMARK   78  A    between atoms: _195  and  _197
REMARK   79  A    between atoms: _197  and  _198
REMARK   80  A    between atoms: _197  and  _200
REMARK   81  A    between atoms: _200  and  _201
REMARK   82  A    between atoms: _201  and  _202
REMARK   83  A    between atoms: _202  and  _203
REMARK   84  A    between atoms: _203  and  _204
REMARK   85  A    between atoms: _208  and  _210
REMARK   86  A    between atoms: _210  and  _211
REMARK   87  A    between atoms: _210  and  _213
REMARK   88  A    between atoms: _216  and  _218
REMARK   89  A    between atoms: _218  and  _219
REMARK   90  A    between atoms: _222  and  _224
REMARK   91  A    between atoms: _224  and  _225
REMARK   92  A    between atoms: _224  and  _227
REMARK   93  A    between atoms: _227  and  _228
REMARK   94  A    between atoms: _233  and  _235
REMARK   95  A    between atoms: _235  and  _236
REMARK   96  A    between atoms: _235  and  _238
REMARK   97  A    between atoms: _238  and  _239
REMARK   98  A    between atoms: _241  and  _243
REMARK   99  A    between atoms: _243  and  _244
REMARK  100  A    between atoms: _243  and  _246
REMARK  101  A    between atoms: _246  and  _247
REMARK  102  A    between atoms: _247  and  _248
REMARK  103  A    between atoms: _253  and  _255
REMARK  104  A    between atoms: _255  and  _256
REMARK  105  A    between atoms: _255  and  _258
REMARK  106  A    between atoms: _258  and  _259
REMARK  107  A    between atoms: _262  and  _264
REMARK  108  A    between atoms: _264  and  _265
REMARK  109  A    between atoms: _264  and  _267
REMARK  110  A    between atoms: _267  and  _268
REMARK  111  A    between atoms: _273  and  _275
REMARK  112  A    between atoms: _275  and  _276
REMARK  113  A    between atoms: _275  and  _278
REMARK  114  A    between atoms: _278  and  _279
REMARK  115  A    between atoms: _279  and  _280
REMARK  116  A    between atoms: _280  and  _281
REMARK  117  A    between atoms: _290  and  _292
REMARK  118  A    between atoms: _292  and  _293
REMARK  119  A    between atoms: _292  and  _295
REMARK  120  A    between atoms: _298  and  _300
REMARK  121  A    between atoms: _300  and  _301
REMARK  122  A    between atoms: _300  and  _303
REMARK  123  A    between atoms: _303  and  _304
REMARK  124  A    between atoms: _307  and  _309
REMARK  125  A    between atoms: _309  and  _310
REMARK  126  A    between atoms: _309  and  _312
REMARK  127  A    between atoms: _312  and  _313
REMARK  128  A    between atoms: _316  and  _318
REMARK  129  A    between atoms: _318  and  _319
REMARK  130  A    between atoms: _321  and  _323
REMARK  131  A    between atoms: _323  and  _324
REMARK  132  A    between atoms: _323  and  _326
REMARK  133  A    between atoms: _326  and  _327
REMARK  134  A    between atoms: _330  and  _332
REMARK  135  A    between atoms: _332  and  _333
REMARK  136  A    between atoms: _332  and  _335
REMARK  137  A    between atoms: _335  and  _336
REMARK  138  A    between atoms: _339  and  _341
REMARK  139  A    between atoms: _341  and  _342
REMARK  140  A    between atoms: _341  and  _344
REMARK  141  A    between atoms: _344  and  _345
REMARK  142  A    between atoms: _345  and  _346
REMARK  143  A    between atoms: _346  and  _347
REMARK  144  A    between atoms: _356  and  _358
REMARK  145  A    between atoms: _358  and  _359
REMARK  146  A    between atoms: _358  and  _361
REMARK  147  A    between atoms: _361  and  _362
REMARK  148  A    between atoms: _367  and  _368
REMARK  149  A    between atoms: _370  and  _372
REMARK  150  A    between atoms: _372  and  _373
REMARK  151  A    between atoms: _372  and  _375
REMARK  152  A    between atoms: _378  and  _380
REMARK  153  A    between atoms: _380  and  _381
REMARK  154  A    between atoms: _380  and  _383
REMARK  155  A    between atoms: _383  and  _384
REMARK  156  A    between atoms: _384  and  _385
REMARK  157  A    between atoms: _385  and  _386
REMARK  158  A    between atoms: _395  and  _397
REMARK  159  A    between atoms: _397  and  _398
REMARK  160  A    between atoms: _397  and  _400
REMARK  161  A    between atoms: _400  and  _401
REMARK  162  A    between atoms: _406  and  _407
REMARK  163  A    between atoms: _409  and  _411
REMARK  164  A    between atoms: _411  and  _412
REMARK  165  A    between atoms: _414  and  _416
REMARK  166  A    between atoms: _416  and  _417
REMARK  167  A    between atoms: _416  and  _419
REMARK  168  A    between atoms: _419  and  _420
REMARK  169  A    between atoms: _420  and  _723
REMARK  170  A    between atoms: _421  and  _423
REMARK  171  A    between atoms: _423  and  _424
REMARK  172  A    between atoms: _423  and  _426
REMARK  173  A    between atoms: _426  and  _427
REMARK  174  A    between atoms: _432  and  _434
REMARK  175  A    between atoms: _434  and  _435
REMARK  176  A    between atoms: _434  and  _437
REMARK  177  A    between atoms: _437  and  _438
REMARK  178  A    between atoms: _443  and  _444
REMARK  179  A    between atoms: _446  and  _448
REMARK  180  A    between atoms: _448  and  _449
REMARK  181  A    between atoms: _452  and  _454
REMARK  182  A    between atoms: _454  and  _455
REMARK  183  A    between atoms: _454  and  _457
REMARK  184  A    between atoms: _457  and  _458
REMARK  185  A    between atoms: _463  and  _464
REMARK  186  A    between atoms: _466  and  _468
REMARK  187  A    between atoms: _468  and  _469
REMARK  188  A    between atoms: _468  and  _471
REMARK  189  A    between atoms: _471  and  _472
REMARK  190  A    between atoms: _477  and  _478
REMARK  191  A    between atoms: _480  and  _482
REMARK  192  A    between atoms: _482  and  _483
REMARK  193  A    between atoms: _482  and  _485
REMARK  194  A    between atoms: _485  and  _486
REMARK  195  A    between atoms: _489  and  _491
REMARK  196  A    between atoms: _491  and  _492
REMARK  197  A    between atoms: _491  and  _494
REMARK  198  A    between atoms: _494  and  _495
REMARK  199  A    between atoms: _505  and  _507
REMARK  200  A    between atoms: _507  and  _508
REMARK  201  A    between atoms: _511  and  _513
REMARK  202  A    between atoms: _513  and  _514
REMARK  203  A    between atoms: _517  and  _519
REMARK  204  A    between atoms: _519  and  _520
REMARK  205  A    between atoms: _519  and  _522
REMARK  206  A    between atoms: _522  and  _523
REMARK  207  A    between atoms: _523  and  _524
REMARK  208  A    between atoms: _529  and  _531
REMARK  209  A    between atoms: _531  and  _532
REMARK  210  A    between atoms: _531  and  _534
REMARK  211  A    between atoms: _534  and  _535
REMARK  212  A    between atoms: _538  and  _540
REMARK  213  A    between atoms: _540  and  _541
REMARK  214  A    between atoms: _540  and  _543
REMARK  215  A    between atoms: _543  and  _544
REMARK  216  A    between atoms: _547  and  _549
REMARK  217  A    between atoms: _549  and  _550
REMARK  218  A    between atoms: _549  and  _552
REMARK  219  A    between atoms: _552  and  _553
REMARK  220  A    between atoms: _553  and  _554
REMARK  221  A    between atoms: _554  and  _555
REMARK  222  A    between atoms: _555  and  _556
REMARK  223  A    between atoms: _560  and  _562
REMARK  224  A    between atoms: _562  and  _563
REMARK  225  A    between atoms: _562  and  _565
REMARK  226  A    between atoms: _565  and  _566
REMARK  227  A    between atoms: _571  and  _573
REMARK  228  A    between atoms: _573  and  _574
REMARK  229  A    between atoms: _573  and  _576
REMARK  230  A    between atoms: _576  and  _577
REMARK  231  A    between atoms: _577  and  _578
REMARK  232  A    between atoms: _578  and  _579
REMARK  233  A    between atoms: _579  and  _580
REMARK  234  A    between atoms: _584  and  _586
REMARK  235  A    between atoms: _586  and  _587
REMARK  236  A    between atoms: _586  and  _589
REMARK  237  A    between atoms: _589  and  _590
REMARK  238  A    between atoms: _600  and  _602
REMARK  239  A    between atoms: _602  and  _603
REMARK  240  A    between atoms: _602  and  _605
REMARK  241  A    between atoms: _605  and  _606
REMARK  242  A    between atoms: _606  and  _607
REMARK  243  A    between atoms: _610  and  _612
REMARK  244  A    between atoms: _612  and  _613
REMARK  245  A    between atoms: _616  and  _618
REMARK  246  A    between atoms: _618  and  _619
REMARK  247  A    between atoms: _622  and  _624
REMARK  248  A    between atoms: _624  and  _625
REMARK  249  A    between atoms: _624  and  _627
REMARK  250  A    between atoms: _627  and  _628
REMARK  251  A    between atoms: _633  and  _635
REMARK  252  A    between atoms: _635  and  _636
REMARK  253  A    between atoms: _635  and  _638
REMARK  254  A    between atoms: _641  and  _643
REMARK  255  A    between atoms: _643  and  _644
REMARK  256  A    between atoms: _647  and  _649
REMARK  257  A    between atoms: _649  and  _650
REMARK  258  A    between atoms: _649  and  _652
REMARK  259  A    between atoms: _652  and  _653
REMARK  260  A    between atoms: _653  and  _654
REMARK  261  A    between atoms: _659  and  _661
REMARK  262  A    between atoms: _661  and  _662
REMARK  263  A    between atoms: _661  and  _664
REMARK  264  A    between atoms: _664  and  _665
REMARK  265  A    between atoms: _668  and  _670
REMARK  266  A    between atoms: _670  and  _671
REMARK  267  A    between atoms: _670  and  _673
REMARK  268  A    between atoms: _673  and  _674
REMARK  269  A    between atoms: _674  and  _675
REMARK  270  A    between atoms: _675  and  _676
REMARK  271  A    between atoms: _685  and  _687
REMARK  272  A    between atoms: _687  and  _688
REMARK  273  A    between atoms: _687  and  _690
REMARK  274  A    between atoms: _690  and  _691
REMARK  275  A    between atoms: _696  and  _697
REMARK  276  A    between atoms: _699  and  _701
REMARK  277  A    between atoms: _701  and  _702
REMARK  278  A    between atoms: _701  and  _704
REMARK  279  A    between atoms: _704  and  _705
REMARK  280  A    between atoms: _708  and  _710
REMARK  281  A    between atoms: _710  and  _711
REMARK  282  A    between atoms: _710  and  _713
REMARK  283  A    between atoms: _713  and  _714
REMARK  284  A    between atoms: _717  and  _719
REMARK  285  A    between atoms: _719  and  _720
REMARK  286  A    between atoms: _719  and  _722
REMARK  287  A    between atoms: _722  and  _723
REMARK  288  A    between atoms: _724  and  _726
REMARK  289  A    between atoms: _726  and  _727
REMARK  290  A    between atoms: _726  and  _729
REMARK  291  A    between atoms: _732  and  _734
REMARK  292  A    between atoms: _734  and  _735
REMARK  293  A    between atoms: _734  and  _737
REMARK  294  A    between atoms: _737  and  _738
REMARK  295  A    between atoms: _738  and  _739
REMARK  296  A    between atoms: _742  and  _744
REMARK  297  A    between atoms: _744  and  _745
REMARK  298  A    between atoms: _744  and  _747
REMARK  299  A    between atoms: _747  and  _748
REMARK  300  A    between atoms: _758  and  _760
REMARK  301  A    between atoms: _760  and  _761
REMARK  302  A    between atoms: _760  and  _763
REMARK  303  A    between atoms: _763  and  _764
REMARK  304  A    between atoms: _767  and  _769
REMARK  305  A    between atoms: _769  and  _770
REMARK  306  A    between atoms: _769  and  _772
REMARK  307  A    between atoms: _772  and  _773
REMARK  308  A    between atoms: _773  and  _774
REMARK  309  A    between atoms: _774  and  _775
REMARK  310  A    between atoms: _784  and  _786
REMARK  311  A    between atoms: _786  and  _787
REMARK  312  A    between atoms: _786  and  _789
REMARK  313  A    between atoms: _789  and  _790
REMARK  314  A    between atoms: _795  and  _796
REMARK                            x       y       z     vdW  Elec       q    Type
REMARK                         _______ _______ _______ _____ _____    ______ ____
ROOT
ATOM      1  CA  ARG A   4      28.600   2.335  46.936  0.00  0.00    +0.149 C 
ENDROOT
BRANCH   1   2
ATOM      2  C   ARG A   4      28.785   1.683  45.574  0.00  0.00    +0.241 C 
ATOM      3  N   LYS A   5      27.992   0.637  45.298  0.00  0.00    -0.297 N 
ATOM      4  H   LYS A   5      27.320   0.287  46.011  0.00  0.00    +0.150 HD
ATOM      5  O   ARG A   4      29.601   2.150  44.745  0.00  0.00    -0.273 OA
BRANCH   3   6
ATOM      6  CA  LYS A   5      28.079  -0.011  43.983  0.00  0.00    +0.149 C 
BRANCH   6   7
ATOM      7  C   LYS A   5      27.718   0.904  42.837  0.00  0.00    +0.241 C 
ATOM      8  N   VAL A   6      26.603   1.603  42.988  0.00  0.00    -0.298 N 
ATOM      9  H   VAL A   6      26.068   1.557  43.878  0.00  0.00    +0.150 HD
ATOM     10  O   LYS A   5      28.424   0.989  41.837  0.00  0.00    -0.273 OA
BRANCH   8  11
ATOM     11  CA  VAL A   6      26.147   2.421  41.908  0.00  0.00    +0.137 C 
BRANCH  11  12
ATOM     12  CB  VAL A   6      24.637   2.723  42.079  0.00  0.00    +0.026 C 
ATOM     13  CG2 VAL A   6      24.365   3.802  43.116  0.00  0.00    +0.002 C 
ATOM     14  CG1 VAL A   6      24.093   3.093  40.794  0.00  0.00    +0.002 C 
ENDBRANCH  11  12
BRANCH  11  15
ATOM     15  C   VAL A   6      27.051   3.640  41.644  0.00  0.00    +0.227 C 
ATOM     16  O   VAL A   6      27.256   4.016  40.480  0.00  0.00    -0.286 OA
ENDBRANCH  11  15
ENDBRANCH   8  11
ENDBRANCH   6   7
BRANCH   6  17
ATOM     17  CB  LYS A   5      27.167  -1.259  43.874  0.00  0.00    +0.029 C 
BRANCH  17  18
ATOM     18  CG  LYS A   5      27.578  -2.418  44.767  0.00  0.00    +0.000 C 
BRANCH  18  19
ATOM     19  CD  LYS A   5      26.580  -3.551  44.592  0.00  0.00    -0.024 C 
BRANCH  19  20
ATOM     20  CE  LYS A   5      26.802  -4.663  45.607  0.00  0.00    -0.086 C 
BRANCH  20  21
ATOM     21  NZ  LYS A   5      25.543  -5.537  45.685  0.00  0.00    +0.380 N 
ATOM     22  HZ1 LYS A   5      25.693  -6.298  46.378  0.00  0.00    -0.089 HD
ATOM     23  HZ2 LYS A   5      24.734  -4.953  45.979  0.00  0.00    -0.089 HD
ATOM     24  HZ3 LYS A   5      25.351  -5.951  44.750  0.00  0.00    -0.089 HD
ENDBRANCH  20  21
ENDBRANCH  19  20
ENDBRANCH  18  19
ENDBRANCH  17  18
ENDBRANCH   6  17
ENDBRANCH   3   6
ENDBRANCH   1   2
BRANCH   1  26
ATOM     25  C   THR A   3      26.330   3.209  46.516  0.00  0.00    +0.243 C 
ATOM     26  N   ARG A   4      27.153   2.465  47.257  0.00  0.00    -0.297 N 
ATOM     27  H   ARG A   4      26.772   1.961  48.083  0.00  0.00    +0.150 HD
ATOM     28  O   THR A   3      26.702   3.834  45.497  0.00  0.00    -0.273 OA
BRANCH  25  29
ATOM     29  CA  THR A   3      24.837   3.201  46.913  0.00  0.00    +0.176 C 
BRANCH  29  31
ATOM     30  C   GLU A   2      24.375   0.870  46.347  0.00  0.00    +0.241 C 
ATOM     31  N   THR A   3      24.384   1.843  47.260  0.00  0.00    -0.295 N 
ATOM     32  H   THR A   3      24.067   1.640  48.229  0.00  0.00    +0.150 HD
ATOM     33  O   GLU A   2      24.654   1.043  45.152  0.00  0.00    -0.273 OA
BRANCH  30  34
ATOM     34  CA  GLU A   2      23.979  -0.518  46.844  0.00  0.00    +0.149 C 
BRANCH  34  36
ATOM     35  C   GLY A   1      25.756  -0.901  48.454  0.00  0.00    +0.240 C 
ATOM     36  N   GLU A   2      24.442  -0.779  48.195  0.00  0.00    -0.297 N 
ATOM     37  H   GLU A   2      23.753  -0.872  48.968  0.00  0.00    +0.150 HD
ATOM     38  O   GLY A   1      26.619  -0.796  47.573  0.00  0.00    -0.274 OA
BRANCH  35  39
ATOM     39  CA  GLY A   1      26.147  -1.120  49.902  0.00  0.00    +0.169 C 
BRANCH  39  40
ATOM     40  N   GLY A   1      25.392  -0.266  50.803  0.00  0.00    -0.236 NA
ATOM     41  H   GLY A   1      24.685  -0.692  51.436  0.00  0.00    +0.142 HD
ENDBRANCH  39  40
ENDBRANCH  35  39
ENDBRANCH  34  36
BRANCH  34  42
ATOM     42  CB  GLU A   2      22.442  -0.738  46.708  0.00  0.00    +0.041 C 
BRANCH  42  43
ATOM     43  CG  GLU A   2      22.044  -2.179  47.001  0.00  0.00    +0.116 C 
BRANCH  43  44
ATOM     44  CD  GLU A   2      22.772  -3.130  46.071  0.00  0.00    +0.365 C 
ATOM     45  OE2 GLU A   2      23.644  -3.893  46.516  0.00  0.00    -0.246 OA
ATOM     46  OE1 GLU A   2      22.439  -3.115  44.876  0.00  0.00    -0.246 OA
ENDBRANCH  43  44
ENDBRANCH  42  43
ENDBRANCH  34  42
ENDBRANCH  30  34
ENDBRANCH  29  31
BRANCH  29  47
ATOM     47  CB  THR A   3      24.560   4.197  48.067  0.00  0.00    +0.137 C 
ATOM     48  CG2 THR A   3      25.053   5.569  47.711  0.00  0.00    +0.034 C 
BRANCH  47  49
ATOM     49  OG1 THR A   3      23.137   4.251  48.316  0.00  0.00    -0.382 OA
ATOM     50  HG1 THR A   3      22.813   3.350  48.568  0.00  0.00    +0.210 HD
ENDBRANCH  47  49
ENDBRANCH  29  47
ENDBRANCH  25  29
ENDBRANCH   1  26
BRANCH   1  51
ATOM     51  CB  ARG A   4      29.323   1.494  47.988  0.00  0.00    +0.033 C 
BRANCH  51  52
ATOM     52  CG  ARG A   4      29.558   2.195  49.294  0.00  0.00    +0.045 C 
BRANCH  52  53
ATOM     53  CD  ARG A   4      30.597   1.440  50.138  0.00  0.00    +0.174 C 
BRANCH  53  54
ATOM     54  NE  ARG A   4      30.215   0.050  50.406  0.00  0.00    -0.265 N 
ATOM     55  CZ  ARG A   4      29.506  -0.360  51.456  0.00  0.00    +0.342 C 
ATOM     56  NH2 ARG A   4      29.079   0.501  52.369  0.00  0.00    -0.292 N 
ATOM     57 HH21 ARG A   4      28.526   0.164  53.183  0.00  0.00    +0.255 HD
ATOM     58 HH22 ARG A   4      29.297   1.513  52.271  0.00  0.00    +0.255 HD
ATOM     59  NH1 ARG A   4      29.211  -1.649  51.587  0.00  0.00    -0.292 N 
ATOM     60 HH11 ARG A   4      28.658  -1.975  52.405  0.00  0.00    +0.255 HD
ATOM     61 HH12 ARG A   4      29.534  -2.332  50.872  0.00  0.00    +0.255 HD
ATOM     62  HE  ARG A   4      30.522  -0.672  49.723  0.00  0.00    +0.259 HD
ENDBRANCH  53  54
ENDBRANCH  52  53
ENDBRANCH  51  52
ENDBRANCH   1  51
TORSDOF 27
REMARK  Name = ../refined-set-2016/3qfd/3qfd_pocket.pdb
REMARK  314 active torsions:
REMARK  status: ('A' for Active; 'I' for Inactive)
REMARK    1  A    between atoms: _1  and  _3
REMARK    2  A    between atoms: _3  and  _4
REMARK    3  A    between atoms: _3  and  _6
REMARK    4  A    between atoms: _6  and  _7
REMARK    5  A    between atoms: _7  and  _8
REMARK    6  A    between atoms: _10  and  _12
REMARK    7  A    between atoms: _12  and  _13
REMARK    8  A    between atoms: _12  and  _15
REMARK    9  A    between atoms: _15  and  _16
REMARK   10  A    between atoms: _16  and  _17
REMARK   11  A    between atoms: _17  and  _18
REMARK   12  A    between atoms: _27  and  _29
REMARK   13  A    between atoms: _29  and  _30
REMARK   14  A    between atoms: _29  and  _32
REMARK   15  A    between atoms: _32  and  _33
REMARK   16  A    between atoms: _38  and  _39
REMARK   17  A    between atoms: _41  and  _43
REMARK   18  A    between atoms: _43  and  _44
REMARK   19  A    between atoms: _43  and  _46
REMARK   20  A    between atoms: _46  and  _47
REMARK   21  A    between atoms: _53  and  _55
REMARK   22  A    between atoms: _55  and  _56
REMARK   23  A    between atoms: _55  and  _58
REMARK   24  A    between atoms: _58  and  _59
REMARK   25  A    between atoms: _65  and  _67
REMARK   26  A    between atoms: _67  and  _68
REMARK   27  A    between atoms: _71  and  _73
REMARK   28  A    between atoms: _73  and  _74
REMARK   29  A    between atoms: _73  and  _76
REMARK   30  A    between atoms: _79  and  _81
REMARK   31  A    between atoms: _81  and  _82
REMARK   32  A    between atoms: _84  and  _86
REMARK   33  A    between atoms: _86  and  _87
REMARK   34  A    between atoms: _86  and  _89
REMARK   35  A    between atoms: _92  and  _94
REMARK   36  A    between atoms: _94  and  _95
REMARK   37  A    between atoms: _94  and  _97
REMARK   38  A    between atoms: _97  and  _98
REMARK   39  A    between atoms: _104  and  _106
REMARK   40  A    between atoms: _106  and  _107
REMARK   41  A    between atoms: _106  and  _109
REMARK   42  A    between atoms: _112  and  _114
REMARK   43  A    between atoms: _114  and  _115
REMARK   44  A    between atoms: _114  and  _117
REMARK   45  A    between atoms: _117  and  _118
REMARK   46  A    between atoms: _118  and  _119
REMARK   47  A    between atoms: _121  and  _123
REMARK   48  A    between atoms: _123  and  _124
REMARK   49  A    between atoms: _123  and  _126
REMARK   50  A    between atoms: _126  and  _127
REMARK   51  A    between atoms: _130  and  _132
REMARK   52  A    between atoms: _132  and  _133
REMARK   53  A    between atoms: _132  and  _135
REMARK   54  A    between atoms: _135  and  _136
REMARK   55  A    between atoms: _136  and  _137
REMARK   56  A    between atoms: _140  and  _142
REMARK   57  A    between atoms: _142  and  _143
REMARK   58  A    between atoms: _142  and  _145
REMARK   59  A    between atoms: _145  and  _146
REMARK   60  A    between atoms: _151  and  _152
REMARK   61  A    between atoms: _154  and  _156
REMARK   62  A    between atoms: _156  and  _157
REMARK   63  A    between atoms: _159  and  _161
REMARK   64  A    between atoms: _161  and  _162
REMARK   65  A    between atoms: _161  and  _164
REMARK   66  A    between atoms: _164  and  _165
REMARK   67  A    between atoms: _165  and  _166
REMARK   68  A    between atoms: _169  and  _171
REMARK   69  A    between atoms: _171  and  _172
REMARK   70  A    between atoms: _171  and  _174
REMARK   71  A    between atoms: _174  and  _175
REMARK   72  A    between atoms: _178  and  _180
REMARK   73  A    between atoms: _180  and  _181
REMARK   74  A    between atoms: _180  and  _183
REMARK   75  A    between atoms: _183  and  _184
REMARK   76  A    between atoms: _184  and  _185
REMARK   77  A    between atoms: _185  and  _186
REMARK   78  A    between atoms: _195  and  _197
REMARK   79  A    between atoms: _197  and  _198
REMARK   80  A    between atoms: _197  and  _200
REMARK   81  A    between atoms: _200  and  _201
REMARK   82  A    between atoms: _201  and  _202
REMARK   83  A    between atoms: _202  and  _203
REMARK   84  A    between atoms: _203  and  _204
REMARK   85  A    between atoms: _208  and  _210
REMARK   86  A    between atoms: _210  and  _211
REMARK   87  A    between atoms: _210  and  _213
REMARK   88  A    between atoms: _216  and  _218
REMARK   89  A    between atoms: _218  and  _219
REMARK   90  A    between atoms: _222  and  _224
REMARK   91  A    between atoms: _224  and  _225
REMARK   92  A    between atoms: _224  and  _227
REMARK   93  A    between atoms: _227  and  _228
REMARK   94  A    between atoms: _233  and  _235
REMARK   95  A    between atoms: _235  and  _236
REMARK   96  A    between atoms: _235  and  _238
REMARK   97  A    between atoms: _238  and  _239
REMARK   98  A    between atoms: _241  and  _243
REMARK   99  A    between atoms: _243  and  _244
REMARK  100  A    between atoms: _243  and  _246
REMARK  101  A    between atoms: _246  and  _247
REMARK  102  A    between atoms: _247  and  _248
REMARK  103  A    between atoms: _253  and  _255
REMARK  104  A    between atoms: _255  and  _256
REMARK  105  A    between atoms: _255  and  _258
REMARK  106  A    between atoms: _258  and  _259
REMARK  107  A    between atoms: _262  and  _264
REMARK  108  A    between atoms: _264  and  _265
REMARK  109  A    between atoms: _264  and  _267
REMARK  110  A    between atoms: _267  and  _268
REMARK  111  A    between atoms: _273  and  _275
REMARK  112  A    between atoms: _275  and  _276
REMARK  113  A    between atoms: _275  and  _278
REMARK  114  A    between atoms: _278  and  _279
REMARK  115  A    between atoms: _279  and  _280
REMARK  116  A    between atoms: _280  and  _281
REMARK  117  A    between atoms: _290  and  _292
REMARK  118  A    between atoms: _292  and  _293
REMARK  119  A    between atoms: _292  and  _295
REMARK  120  A    between atoms: _298  and  _300
REMARK  121  A    between atoms: _300  and  _301
REMARK  122  A    between atoms: _300  and  _303
REMARK  123  A    between atoms: _303  and  _304
REMARK  124  A    between atoms: _307  and  _309
REMARK  125  A    between atoms: _309  and  _310
REMARK  126  A    between atoms: _309  and  _312
REMARK  127  A    between atoms: _312  and  _313
REMARK  128  A    between atoms: _316  and  _318
REMARK  129  A    between atoms: _318  and  _319
REMARK  130  A    between atoms: _321  and  _323
REMARK  131  A    between atoms: _323  and  _324
REMARK  132  A    between atoms: _323  and  _326
REMARK  133  A    between atoms: _326  and  _327
REMARK  134  A    between atoms: _330  and  _332
REMARK  135  A    between atoms: _332  and  _333
REMARK  136  A    between atoms: _332  and  _335
REMARK  137  A    between atoms: _335  and  _336
REMARK  138  A    between atoms: _339  and  _341
REMARK  139  A    between atoms: _341  and  _342
REMARK  140  A    between atoms: _341  and  _344
REMARK  141  A    between atoms: _344  and  _345
REMARK  142  A    between atoms: _345  and  _346
REMARK  143  A    between atoms: _346  and  _347
REMARK  144  A    between atoms: _356  and  _358
REMARK  145  A    between atoms: _358  and  _359
REMARK  146  A    between atoms: _358  and  _361
REMARK  147  A    between atoms: _361  and  _362
REMARK  148  A    between atoms: _367  and  _368
REMARK  149  A    between atoms: _370  and  _372
REMARK  150  A    between atoms: _372  and  _373
REMARK  151  A    between atoms: _372  and  _375
REMARK  152  A    between atoms: _378  and  _380
REMARK  153  A    between atoms: _380  and  _381
REMARK  154  A    between atoms: _380  and  _383
REMARK  155  A    between atoms: _383  and  _384
REMARK  156  A    between atoms: _384  and  _385
REMARK  157  A    between atoms: _385  and  _386
REMARK  158  A    between atoms: _395  and  _397
REMARK  159  A    between atoms: _397  and  _398
REMARK  160  A    between atoms: _397  and  _400
REMARK  161  A    between atoms: _400  and  _401
REMARK  162  A    between atoms: _406  and  _407
REMARK  163  A    between atoms: _409  and  _411
REMARK  164  A    between atoms: _411  and  _412
REMARK  165  A    between atoms: _414  and  _416
REMARK  166  A    between atoms: _416  and  _417
REMARK  167  A    between atoms: _416  and  _419
REMARK  168  A    between atoms: _419  and  _420
REMARK  169  A    between atoms: _420  and  _723
REMARK  170  A    between atoms: _421  and  _423
REMARK  171  A    between atoms: _423  and  _424
REMARK  172  A    between atoms: _423  and  _426
REMARK  173  A    between atoms: _426  and  _427
REMARK  174  A    between atoms: _432  and  _434
REMARK  175  A    between atoms: _434  and  _435
REMARK  176  A    between atoms: _434  and  _437
REMARK  177  A    between atoms: _437  and  _438
REMARK  178  A    between atoms: _443  and  _444
REMARK  179  A    between atoms: _446  and  _448
REMARK  180  A    between atoms: _448  and  _449
REMARK  181  A    between atoms: _452  and  _454
REMARK  182  A    between atoms: _454  and  _455
REMARK  183  A    between atoms: _454  and  _457
REMARK  184  A    between atoms: _457  and  _458
REMARK  185  A    between atoms: _463  and  _464
REMARK  186  A    between atoms: _466  and  _468
REMARK  187  A    between atoms: _468  and  _469
REMARK  188  A    between atoms: _468  and  _471
REMARK  189  A    between atoms: _471  and  _472
REMARK  190  A    between atoms: _477  and  _478
REMARK  191  A    between atoms: _480  and  _482
REMARK  192  A    between atoms: _482  and  _483
REMARK  193  A    between atoms: _482  and  _485
REMARK  194  A    between atoms: _485  and  _486
REMARK  195  A    between atoms: _489  and  _491
REMARK  196  A    between atoms: _491  and  _492
REMARK  197  A    between atoms: _491  and  _494
REMARK  198  A    between atoms: _494  and  _495
REMARK  199  A    between atoms: _505  and  _507
REMARK  200  A    between atoms: _507  and  _508
REMARK  201  A    between atoms: _511  and  _513
REMARK  202  A    between atoms: _513  and  _514
REMARK  203  A    between atoms: _517  and  _519
REMARK  204  A    between atoms: _519  and  _520
REMARK  205  A    between atoms: _519  and  _522
REMARK  206  A    between atoms: _522  and  _523
REMARK  207  A    between atoms: _523  and  _524
REMARK  208  A    between atoms: _529  and  _531
REMARK  209  A    between atoms: _531  and  _532
REMARK  210  A    between atoms: _531  and  _534
REMARK  211  A    between atoms: _534  and  _535
REMARK  212  A    between atoms: _538  and  _540
REMARK  213  A    between atoms: _540  and  _541
REMARK  214  A    between atoms: _540  and  _543
REMARK  215  A    between atoms: _543  and  _544
REMARK  216  A    between atoms: _547  and  _549
REMARK  217  A    between atoms: _549  and  _550
REMARK  218  A    between atoms: _549  and  _552
REMARK  219  A    between atoms: _552  and  _553
REMARK  220  A    between atoms: _553  and  _554
REMARK  221  A    between atoms: _554  and  _555
REMARK  222  A    between atoms: _555  and  _556
REMARK  223  A    between atoms: _560  and  _562
REMARK  224  A    between atoms: _562  and  _563
REMARK  225  A    between atoms: _562  and  _565
REMARK  226  A    between atoms: _565  and  _566
REMARK  227  A    between atoms: _571  and  _573
REMARK  228  A    between atoms: _573  and  _574
REMARK  229  A    between atoms: _573  and  _576
REMARK  230  A    between atoms: _576  and  _577
REMARK  231  A    between atoms: _577  and  _578
REMARK  232  A    between atoms: _578  and  _579
REMARK  233  A    between atoms: _579  and  _580
REMARK  234  A    between atoms: _584  and  _586
REMARK  235  A    between atoms: _586  and  _587
REMARK  236  A    between atoms: _586  and  _589
REMARK  237  A    between atoms: _589  and  _590
REMARK  238  A    between atoms: _600  and  _602
REMARK  239  A    between atoms: _602  and  _603
REMARK  240  A    between atoms: _602  and  _605
REMARK  241  A    between atoms: _605  and  _606
REMARK  242  A    between atoms: _606  and  _607
REMARK  243  A    between atoms: _610  and  _612
REMARK  244  A    between atoms: _612  and  _613
REMARK  245  A    between atoms: _616  and  _618
REMARK  246  A    between atoms: _618  and  _619
REMARK  247  A    between atoms: _622  and  _624
REMARK  248  A    between atoms: _624  and  _625
REMARK  249  A    between atoms: _624  and  _627
REMARK  250  A    between atoms: _627  and  _628
REMARK  251  A    between atoms: _633  and  _635
REMARK  252  A    between atoms: _635  and  _636
REMARK  253  A    between atoms: _635  and  _638
REMARK  254  A    between atoms: _641  and  _643
REMARK  255  A    between atoms: _643  and  _644
REMARK  256  A    between atoms: _647  and  _649
REMARK  257  A    between atoms: _649  and  _650
REMARK  258  A    between atoms: _649  and  _652
REMARK  259  A    between atoms: _652  and  _653
REMARK  260  A    between atoms: _653  and  _654
REMARK  261  A    between atoms: _659  and  _661
REMARK  262  A    between atoms: _661  and  _662
REMARK  263  A    between atoms: _661  and  _664
REMARK  264  A    between atoms: _664  and  _665
REMARK  265  A    between atoms: _668  and  _670
REMARK  266  A    between atoms: _670  and  _671
REMARK  267  A    between atoms: _670  and  _673
REMARK  268  A    between atoms: _673  and  _674
REMARK  269  A    between atoms: _674  and  _675
REMARK  270  A    between atoms: _675  and  _676
REMARK  271  A    between atoms: _685  and  _687
REMARK  272  A    between atoms: _687  and  _688
REMARK  273  A    between atoms: _687  and  _690
REMARK  274  A    between atoms: _690  and  _691
REMARK  275  A    between atoms: _696  and  _697
REMARK  276  A    between atoms: _699  and  _701
REMARK  277  A    between atoms: _701  and  _702
REMARK  278  A    between atoms: _701  and  _704
REMARK  279  A    between atoms: _704  and  _705
REMARK  280  A    between atoms: _708  and  _710
REMARK  281  A    between atoms: _710  and  _711
REMARK  282  A    between atoms: _710  and  _713
REMARK  283  A    between atoms: _713  and  _714
REMARK  284  A    between atoms: _717  and  _719
REMARK  285  A    between atoms: _719  and  _720
REMARK  286  A    between atoms: _719  and  _722
REMARK  287  A    between atoms: _722  and  _723
REMARK  288  A    between atoms: _724  and  _726
REMARK  289  A    between atoms: _726  and  _727
REMARK  290  A    between atoms: _726  and  _729
REMARK  291  A    between atoms: _732  and  _734
REMARK  292  A    between atoms: _734  and  _735
REMARK  293  A    between atoms: _734  and  _737
REMARK  294  A    between atoms: _737  and  _738
REMARK  295  A    between atoms: _738  and  _739
REMARK  296  A    between atoms: _742  and  _744
REMARK  297  A    between atoms: _744  and  _745
REMARK  298  A    between atoms: _744  and  _747
REMARK  299  A    between atoms: _747  and  _748
REMARK  300  A    between atoms: _758  and  _760
REMARK  301  A    between atoms: _760  and  _761
REMARK  302  A    between atoms: _760  and  _763
REMARK  303  A    between atoms: _763  and  _764
REMARK  304  A    between atoms: _767  and  _769
REMARK  305  A    between atoms: _769  and  _770
REMARK  306  A    between atoms: _769  and  _772
REMARK  307  A    between atoms: _772  and  _773
REMARK  308  A    between atoms: _773  and  _774
REMARK  309  A    between atoms: _774  and  _775
REMARK  310  A    between atoms: _784  and  _786
REMARK  311  A    between atoms: _786  and  _787
REMARK  312  A    between atoms: _786  and  _789
REMARK  313  A    between atoms: _789  and  _790
REMARK  314  A    between atoms: _795  and  _796
REMARK                            x       y       z     vdW  Elec       q    Type
REMARK                         _______ _______ _______ _____ _____    ______ ____
ROOT
ATOM      1  CA  ARG A   7      32.716   8.340  33.424  0.00  0.00    +0.149 C 
ENDROOT
BRANCH   1   2
ATOM      2  C   ARG A   7      34.056   8.200  32.726  0.00  0.00    +0.241 C 
ATOM      3  N   VAL A   8      34.872   7.257  33.191  0.00  0.00    -0.297 N 
ATOM      4  H   VAL A   8      34.596   6.705  34.028  0.00  0.00    +0.150 HD
ATOM      5  O   ARG A   7      34.357   8.937  31.784  0.00  0.00    -0.273 OA
BRANCH   3   6
ATOM      6  CA  VAL A   8      36.156   6.988  32.537  0.00  0.00    +0.149 C 
BRANCH   6   7
ATOM      7  C   VAL A   8      35.929   6.450  31.139  0.00  0.00    +0.241 C 
ATOM      8  N   ASP A   9      34.959   5.522  31.018  0.00  0.00    -0.297 N 
ATOM      9  H   ASP A   9      34.440   5.215  31.865  0.00  0.00    +0.150 HD
ATOM     10  O   VAL A   8      36.584   6.946  30.184  0.00  0.00    -0.273 OA
BRANCH   8  11
ATOM     11  CA  ASP A   9      34.614   4.926  29.697  0.00  0.00    +0.160 C 
BRANCH  11  12
ATOM     12  C   ASP A   9      34.300   5.963  28.635  0.00  0.00    +0.241 C 
ATOM     13  N   LEU A  10      33.545   6.997  28.992  0.00  0.00    -0.297 N 
ATOM     14  H   LEU A  10      33.195   7.082  29.968  0.00  0.00    +0.150 HD
ATOM     15  O   ASP A   9      34.718   5.818  27.503  0.00  0.00    -0.273 OA
BRANCH  13  16
ATOM     16  CA  LEU A  10      33.212   8.015  27.994  0.00  0.00    +0.149 C 
BRANCH  16  17
ATOM     17  C   LEU A  10      34.471   8.669  27.371  0.00  0.00    +0.241 C 
ATOM     18  N   GLY A  11      35.474   8.941  28.201  0.00  0.00    -0.295 N 
ATOM     19  H   GLY A  11      35.323   8.836  29.225  0.00  0.00    +0.150 HD
ATOM     20  O   LEU A  10      34.540   8.869  26.143  0.00  0.00    -0.273 OA
BRANCH  18  21
ATOM     21  CA  GLY A  11      36.775   9.381  27.723  0.00  0.00    +0.176 C 
BRANCH  21  22
ATOM     22  C   GLY A  11      37.526   8.370  26.869  0.00  0.00    +0.243 C 
ATOM     23  N   THR A  12      37.597   7.144  27.349  0.00  0.00    -0.295 N 
ATOM     24  H   THR A  12      37.153   6.931  28.265  0.00  0.00    +0.150 HD
ATOM     25  O   GLY A  11      38.070   8.710  25.816  0.00  0.00    -0.273 OA
BRANCH  23  26
ATOM     26  CA  THR A  12      38.290   6.069  26.620  0.00  0.00    +0.176 C 
BRANCH  26  27
ATOM     27  C   THR A  12      37.675   5.839  25.255  0.00  0.00    +0.243 C 
ATOM     28  N   LEU A  13      36.338   5.773  25.200  0.00  0.00    -0.297 N 
ATOM     29  H   LEU A  13      35.783   5.906  26.069  0.00  0.00    +0.150 HD
ATOM     30  O   THR A  12      38.398   5.768  24.265  0.00  0.00    -0.273 OA
BRANCH  28  31
ATOM     31  CA  LEU A  13      35.649   5.517  23.939  0.00  0.00    +0.149 C 
BRANCH  31  32
ATOM     32  C   LEU A  13      35.802   6.657  22.946  0.00  0.00    +0.241 C 
ATOM     33  N   ARG A  14      35.810   7.901  23.413  0.00  0.00    -0.298 N 
ATOM     34  H   ARG A  14      35.559   8.085  24.405  0.00  0.00    +0.150 HD
ATOM     35  O   LEU A  13      35.969   6.420  21.761  0.00  0.00    -0.273 OA
BRANCH  33  36
ATOM     36  CA  ARG A  14      36.167   8.998  22.543  0.00  0.00    +0.137 C 
BRANCH  36  37
ATOM     37  C   ARG A  14      37.553   8.769  21.884  0.00  0.00    +0.227 C 
ATOM     38  O   ARG A  14      37.737   9.035  20.673  0.00  0.00    -0.286 OA
ENDBRANCH  36  37
BRANCH  36  39
ATOM     39  CB  ARG A  14      36.117  10.274  23.393  0.00  0.00    +0.031 C 
BRANCH  39  40
ATOM     40  CG  ARG A  14      36.550  11.432  22.752  0.00  0.00    +0.045 C 
BRANCH  40  41
ATOM     41  CD  ARG A  14      36.387  12.645  23.626  0.00  0.00    +0.174 C 
BRANCH  41  42
ATOM     42  NE  ARG A  14      37.424  13.567  23.224  0.00  0.00    -0.265 N 
ATOM     43  CZ  ARG A  14      38.025  14.417  24.039  0.00  0.00    +0.342 C 
ATOM     44  NH2 ARG A  14      37.649  14.516  25.315  0.00  0.00    -0.292 N 
ATOM     45 HH21 ARG A  14      38.128  15.188  25.948  0.00  0.00    +0.255 HD
ATOM     46 HH22 ARG A  14      36.876  13.921  25.677  0.00  0.00    +0.255 HD
ATOM     47  NH1 ARG A  14      38.954  15.217  23.544  0.00  0.00    -0.292 N 
ATOM     48 HH11 ARG A  14      39.441  15.894  24.165  0.00  0.00    +0.255 HD
ATOM     49 HH12 ARG A  14      39.197  15.169  22.534  0.00  0.00    +0.255 HD
ATOM     50  HE  ARG A  14      37.718  13.562  22.226  0.00  0.00    +0.259 HD
ENDBRANCH  41  42
ENDBRANCH  40  41
ENDBRANCH  39  40
ENDBRANCH  36  39
ENDBRANCH  33  36
ENDBRANCH  31  32
BRANCH  31  51
ATOM     51  CB  LEU A  13      34.157   5.215  24.197  0.00  0.00    +0.029 C 
BRANCH  51  52
ATOM     52  CG  LEU A  13      33.994   3.903  24.916  0.00  0.00    +0.002 C 
ATOM     53  CD2 LEU A  13      32.640   3.846  25.671  0.00  0.00    +0.000 C 
ATOM     54  CD1 LEU A  13      34.100   2.722  23.936  0.00  0.00    +0.000 C 
ENDBRANCH  51  52
ENDBRANCH  31  51
ENDBRANCH  28  31
ENDBRANCH  26  27
BRANCH  26  55
ATOM     55  CB  THR A  12      38.179   4.786  27.430  0.00  0.00    +0.137 C 
ATOM     56  CG2 THR A  12      38.934   3.623  26.787  0.00  0.00    +0.034 C 
BRANCH  55  57
ATOM     57  OG1 THR A  12      38.725   5.026  28.757  0.00  0.00    -0.382 OA
ATOM     58  HG1 THR A  12      38.659   4.197  29.295  0.00  0.00    +0.210 HD
ENDBRANCH  55  57
ENDBRANCH  26  55
ENDBRANCH  23  26
ENDBRANCH  21  22
ENDBRANCH  18  21
ENDBRANCH  16  17
BRANCH  16  59
ATOM     59  CB  LEU A  10      32.279   9.062  28.620  0.00  0.00    +0.029 C 
BRANCH  59  60
ATOM     60  CG  LEU A  10      30.839   8.519  28.703  0.00  0.00    +0.002 C 
ATOM     61  CD2 LEU A  10      30.059   9.262  29.787  0.00  0.00    +0.000 C 
ATOM     62  CD1 LEU A  10      30.086   8.567  27.342  0.00  0.00    +0.000 C 
ENDBRANCH  59  60
ENDBRANCH  16  59
ENDBRANCH  13  16
ENDBRANCH  11  12
BRANCH  11  63
ATOM     63  CB  ASP A   9      33.423   3.997  29.780  0.00  0.00    +0.143 C 
BRANCH  63  64
ATOM     64  CG  ASP A   9      33.712   2.737  30.579  0.00  0.00    +0.367 C 
ATOM     65  OD2 ASP A   9      32.734   2.040  30.938  0.00  0.00    -0.246 OA
ATOM     66  OD1 ASP A   9      34.898   2.439  30.867  0.00  0.00    -0.246 OA
ENDBRANCH  63  64
ENDBRANCH  11  63
ENDBRANCH   8  11
ENDBRANCH   6   7
BRANCH   6  67
ATOM     67  CB  VAL A   8      37.025   6.025  33.355  0.00  0.00    +0.027 C 
ATOM     68  CG2 VAL A   8      37.350   6.700  34.699  0.00  0.00    +0.002 C 
ATOM     69  CG1 VAL A   8      38.342   5.688  32.601  0.00  0.00    +0.002 C 
ENDBRANCH   6  67
ENDBRANCH   3   6
ENDBRANCH   1   2
BRANCH   1  71
ATOM     70  C   HIS A   6      31.815   6.228  32.657  0.00  0.00    +0.241 C 
ATOM     71  N   ARG A   7      32.082   7.062  33.661  0.00  0.00    -0.297 N 
ATOM     72  H   ARG A   7      31.830   6.789  34.632  0.00  0.00    +0.150 HD
ATOM     73  O   HIS A   6      31.949   6.551  31.478  0.00  0.00    -0.273 OA
BRANCH  70  74
ATOM     74  CA  HIS A   6      31.311   4.838  33.009  0.00  0.00    +0.155 C 
BRANCH  74  76
ATOM     75  C   THR A   5      33.224   4.081  34.325  0.00  0.00    +0.243 C 
ATOM     76  N   HIS A   6      31.918   4.349  34.264  0.00  0.00    -0.297 N 
ATOM     77  H   HIS A   6      31.323   4.213  35.106  0.00  0.00    +0.150 HD
ATOM     78  O   THR A   5      33.977   4.285  33.382  0.00  0.00    -0.273 OA
BRANCH  75  79
ATOM     79  CA  THR A   5      33.742   3.550  35.678  0.00  0.00    +0.176 C 
BRANCH  79  81
ATOM     80  C   GLN A   4      33.490   5.626  36.874  0.00  0.00    +0.241 C 
ATOM     81  N   THR A   5      33.214   4.341  36.764  0.00  0.00    -0.295 N 
ATOM     82  H   THR A   5      32.604   3.888  37.474  0.00  0.00    +0.150 HD
ATOM     83  O   GLN A   4      34.171   6.232  36.071  0.00  0.00    -0.273 OA
BRANCH  80  84
ATOM     84  CA  GLN A   4      32.839   6.382  38.020  0.00  0.00    +0.149 C 
BRANCH  84  86
ATOM     85  C   SER A   3      30.509   6.237  37.334  0.00  0.00    +0.243 C 
ATOM     86  N   GLN A   4      31.453   5.933  38.216  0.00  0.00    -0.297 N 
ATOM     87  H   GLN A   4      31.209   5.370  39.056  0.00  0.00    +0.150 HD
ATOM     88  O   SER A   3      30.728   6.791  36.239  0.00  0.00    -0.273 OA
BRANCH  85  89
ATOM     89  CA  SER A   3      29.094   5.759  37.690  0.00  0.00    +0.178 C 
BRANCH  89  91
ATOM     90  C   HIS A   2      29.582   3.363  37.555  0.00  0.00    +0.241 C 
ATOM     91  N   SER A   3      29.138   4.404  38.273  0.00  0.00    -0.295 N 
ATOM     92  H   SER A   3      28.821   4.255  39.252  0.00  0.00    +0.150 HD
ATOM     93  O   HIS A   2      30.001   3.472  36.395  0.00  0.00    -0.273 OA
BRANCH  90  94
ATOM     94  CA  HIS A   2      29.551   1.996  38.252  0.00  0.00    +0.155 C 
BRANCH  94  96
ATOM     95  C   ALA A   1      31.165   2.561  39.972  0.00  0.00    +0.238 C 
ATOM     96  N   HIS A   2      29.940   2.138  39.639  0.00  0.00    -0.297 N 
ATOM     97  H   HIS A   2      29.257   1.908  40.388  0.00  0.00    +0.150 HD
ATOM     98  O   ALA A   1      32.040   2.772  39.115  0.00  0.00    -0.274 OA
BRANCH  95  99
ATOM     99  CA  ALA A   1      31.437   2.783  41.461  0.00  0.00    +0.145 C 
ATOM    100  CB  ALA A   1      31.800   1.459  42.123  0.00  0.00    +0.028 C 
BRANCH  99 101
ATOM    101  N   ALA A   1      30.264   3.441  42.142  0.00  0.00    -0.238 NA
ATOM    102  H   ALA A   1      29.736   2.917  42.869  0.00  0.00    +0.142 HD
ENDBRANCH  99 101
ENDBRANCH  95  99
ENDBRANCH  94  96
BRANCH  94 103
ATOM    103  CB  HIS A   2      28.091   1.521  38.132  0.00  0.00    +0.076 C 
BRANCH 103 104
ATOM    104  CG  HIS A   2      27.867   0.049  38.322  0.00  0.00    +0.082 A 
ATOM    105  ND1 HIS A   2      28.251  -0.631  39.451  0.00  0.00    -0.227 NA
ATOM    106  CE1 HIS A   2      27.866  -1.898  39.361  0.00  0.00    +0.199 A 
ATOM    107  NE2 HIS A   2      27.242  -2.066  38.201  0.00  0.00    -0.221 NA
ATOM    108  CD2 HIS A   2      27.227  -0.856  37.535  0.00  0.00    +0.115 A 
ENDBRANCH 103 104
ENDBRANCH  94 103
ENDBRANCH  90  94
ENDBRANCH  89  91
BRANCH  89 109
ATOM    109  CB  SER A   3      28.449   6.761  38.651  0.00  0.00    +0.166 C 
BRANCH 109 110
ATOM    110  OG  SER A   3      28.542   8.094  38.136  0.00  0.00    -0.380 OA
ATOM    111  H   SER A   3      28.119   8.723  38.773  0.00  0.00    +0.211 HD
ENDBRANCH 109 110
ENDBRANCH  89 109
ENDBRANCH  85  89
ENDBRANCH  84  86
BRANCH  84 112
ATOM    112  CB  GLN A   4      33.679   6.266  39.288  0.00  0.00    +0.039 C 
BRANCH 112 113
ATOM    113  CG  GLN A   4      33.224   7.199  40.450  0.00  0.00    +0.087 C 
BRANCH 113 114
ATOM    114  CD  GLN A   4      33.320   8.721  40.169  0.00  0.00    +0.219 C 
ATOM    115  OE1 GLN A   4      32.675   9.520  40.864  0.00  0.00    -0.275 OA
ATOM    116  NE2 GLN A   4      34.146   9.126  39.195  0.00  0.00    -0.329 N 
ATOM    117 HE21 GLN A   4      34.263  10.141  39.001  0.00  0.00    +0.145 HD
ATOM    118 HE22 GLN A   4      34.670   8.425  38.633  0.00  0.00    +0.145 HD
ENDBRANCH 113 114
ENDBRANCH 112 113
ENDBRANCH  84 112
ENDBRANCH  80  84
ENDBRANCH  79  81
BRANCH  79 119
ATOM    119  CB  THR A   5      33.345   2.089  35.920  0.00  0.00    +0.137 C 
ATOM    120  CG2 THR A   5      33.615   1.233  34.712  0.00  0.00    +0.034 C 
BRANCH 119 121
ATOM    121  OG1 THR A   5      34.075   1.595  37.049  0.00  0.00    -0.382 OA
ATOM    122  HG1 THR A   5      33.856   2.140  37.846  0.00  0.00    +0.210 HD
ENDBRANCH 119 121
ENDBRANCH  79 119
ENDBRANCH  75  79
ENDBRANCH  74  76
BRANCH  74 123
ATOM    123  CB  HIS A   6      29.811   4.938  33.164  0.00  0.00    +0.076 C 
BRANCH 123 124
ATOM    124  CG  HIS A   6      29.095   3.661  32.965  0.00  0.00    +0.082 A 
ATOM    125  CD2 HIS A   6      29.544   2.390  32.911  0.00  0.00    +0.115 A 
ATOM    126  NE2 HIS A   6      28.459   1.588  32.654  0.00  0.00    -0.221 NA
ATOM    127  CE1 HIS A   6      27.372   2.343  32.595  0.00  0.00    +0.199 A 
ATOM    128  ND1 HIS A   6      27.730   3.607  32.764  0.00  0.00    -0.227 NA
ENDBRANCH 123 124
ENDBRANCH  74 123
ENDBRANCH  70  74
ENDBRANCH   1  71
BRANCH   1 129
ATOM    129  CB  ARG A   7      32.906   9.117  34.744  0.00  0.00    +0.033 C 
BRANCH 129 130
ATOM    130  CG  ARG A   7      31.681   9.871  35.150  0.00  0.00    +0.045 C 
BRANCH 130 131
ATOM    131  CD  ARG A   7      31.985  10.753  36.352  0.00  0.00    +0.174 C 
BRANCH 131 132
ATOM    132  NE  ARG A   7      30.775  11.345  36.911  0.00  0.00    -0.265 N 
ATOM    133  CZ  ARG A   7      30.779  12.110  37.999  0.00  0.00    +0.342 C 
ATOM    134  NH2 ARG A   7      31.929  12.345  38.617  0.00  0.00    -0.292 N 
ATOM    135 HH21 ARG A   7      31.949  12.941  39.469  0.00  0.00    +0.255 HD
ATOM    136 HH22 ARG A   7      32.810  11.933  38.250  0.00  0.00    +0.255 HD
ATOM    137  NH1 ARG A   7      29.652  12.630  38.467  0.00  0.00    -0.292 N 
ATOM    138 HH11 ARG A   7      29.669  13.227  39.319  0.00  0.00    +0.255 HD
ATOM    139 HH12 ARG A   7      28.751  12.441  37.982  0.00  0.00    +0.255 HD
ATOM    140  HE  ARG A   7      29.868  11.161  36.437  0.00  0.00    +0.259 HD
ENDBRANCH 131 132
ENDBRANCH 130 131
ENDBRANCH 129 130
ENDBRANCH   1 129
TORSDOF 56
REMARK  Name = ../refined-set-2016/3qfd/3qfd_pocket.pdb
REMARK  314 active torsions:
REMARK  status: ('A' for Active; 'I' for Inactive)
REMARK    1  A    between atoms: _1  and  _3
REMARK    2  A    between atoms: _3  and  _4
REMARK    3  A    between atoms: _3  and  _6
REMARK    4  A    between atoms: _6  and  _7
REMARK    5  A    between atoms: _7  and  _8
REMARK    6  A    between atoms: _10  and  _12
REMARK    7  A    between atoms: _12  and  _13
REMARK    8  A    between atoms: _12  and  _15
REMARK    9  A    between atoms: _15  and  _16
REMARK   10  A    between atoms: _16  and  _17
REMARK   11  A    between atoms: _17  and  _18
REMARK   12  A    between atoms: _27  and  _29
REMARK   13  A    between atoms: _29  and  _30
REMARK   14  A    between atoms: _29  and  _32
REMARK   15  A    between atoms: _32  and  _33
REMARK   16  A    between atoms: _38  and  _39
REMARK   17  A    between atoms: _41  and  _43
REMARK   18  A    between atoms: _43  and  _44
REMARK   19  A    between atoms: _43  and  _46
REMARK   20  A    between atoms: _46  and  _47
REMARK   21  A    between atoms: _53  and  _55
REMARK   22  A    between atoms: _55  and  _56
REMARK   23  A    between atoms: _55  and  _58
REMARK   24  A    between atoms: _58  and  _59
REMARK   25  A    between atoms: _65  and  _67
REMARK   26  A    between atoms: _67  and  _68
REMARK   27  A    between atoms: _71  and  _73
REMARK   28  A    between atoms: _73  and  _74
REMARK   29  A    between atoms: _73  and  _76
REMARK   30  A    between atoms: _79  and  _81
REMARK   31  A    between atoms: _81  and  _82
REMARK   32  A    between atoms: _84  and  _86
REMARK   33  A    between atoms: _86  and  _87
REMARK   34  A    between atoms: _86  and  _89
REMARK   35  A    between atoms: _92  and  _94
REMARK   36  A    between atoms: _94  and  _95
REMARK   37  A    between atoms: _94  and  _97
REMARK   38  A    between atoms: _97  and  _98
REMARK   39  A    between atoms: _104  and  _106
REMARK   40  A    between atoms: _106  and  _107
REMARK   41  A    between atoms: _106  and  _109
REMARK   42  A    between atoms: _112  and  _114
REMARK   43  A    between atoms: _114  and  _115
REMARK   44  A    between atoms: _114  and  _117
REMARK   45  A    between atoms: _117  and  _118
REMARK   46  A    between atoms: _118  and  _119
REMARK   47  A    between atoms: _121  and  _123
REMARK   48  A    between atoms: _123  and  _124
REMARK   49  A    between atoms: _123  and  _126
REMARK   50  A    between atoms: _126  and  _127
REMARK   51  A    between atoms: _130  and  _132
REMARK   52  A    between atoms: _132  and  _133
REMARK   53  A    between atoms: _132  and  _135
REMARK   54  A    between atoms: _135  and  _136
REMARK   55  A    between atoms: _136  and  _137
REMARK   56  A    between atoms: _140  and  _142
REMARK   57  A    between atoms: _142  and  _143
REMARK   58  A    between atoms: _142  and  _145
REMARK   59  A    between atoms: _145  and  _146
REMARK   60  A    between atoms: _151  and  _152
REMARK   61  A    between atoms: _154  and  _156
REMARK   62  A    between atoms: _156  and  _157
REMARK   63  A    between atoms: _159  and  _161
REMARK   64  A    between atoms: _161  and  _162
REMARK   65  A    between atoms: _161  and  _164
REMARK   66  A    between atoms: _164  and  _165
REMARK   67  A    between atoms: _165  and  _166
REMARK   68  A    between atoms: _169  and  _171
REMARK   69  A    between atoms: _171  and  _172
REMARK   70  A    between atoms: _171  and  _174
REMARK   71  A    between atoms: _174  and  _175
REMARK   72  A    between atoms: _178  and  _180
REMARK   73  A    between atoms: _180  and  _181
REMARK   74  A    between atoms: _180  and  _183
REMARK   75  A    between atoms: _183  and  _184
REMARK   76  A    between atoms: _184  and  _185
REMARK   77  A    between atoms: _185  and  _186
REMARK   78  A    between atoms: _195  and  _197
REMARK   79  A    between atoms: _197  and  _198
REMARK   80  A    between atoms: _197  and  _200
REMARK   81  A    between atoms: _200  and  _201
REMARK   82  A    between atoms: _201  and  _202
REMARK   83  A    between atoms: _202  and  _203
REMARK   84  A    between atoms: _203  and  _204
REMARK   85  A    between atoms: _208  and  _210
REMARK   86  A    between atoms: _210  and  _211
REMARK   87  A    between atoms: _210  and  _213
REMARK   88  A    between atoms: _216  and  _218
REMARK   89  A    between atoms: _218  and  _219
REMARK   90  A    between atoms: _222  and  _224
REMARK   91  A    between atoms: _224  and  _225
REMARK   92  A    between atoms: _224  and  _227
REMARK   93  A    between atoms: _227  and  _228
REMARK   94  A    between atoms: _233  and  _235
REMARK   95  A    between atoms: _235  and  _236
REMARK   96  A    between atoms: _235  and  _238
REMARK   97  A    between atoms: _238  and  _239
REMARK   98  A    between atoms: _241  and  _243
REMARK   99  A    between atoms: _243  and  _244
REMARK  100  A    between atoms: _243  and  _246
REMARK  101  A    between atoms: _246  and  _247
REMARK  102  A    between atoms: _247  and  _248
REMARK  103  A    between atoms: _253  and  _255
REMARK  104  A    between atoms: _255  and  _256
REMARK  105  A    between atoms: _255  and  _258
REMARK  106  A    between atoms: _258  and  _259
REMARK  107  A    between atoms: _262  and  _264
REMARK  108  A    between atoms: _264  and  _265
REMARK  109  A    between atoms: _264  and  _267
REMARK  110  A    between atoms: _267  and  _268
REMARK  111  A    between atoms: _273  and  _275
REMARK  112  A    between atoms: _275  and  _276
REMARK  113  A    between atoms: _275  and  _278
REMARK  114  A    between atoms: _278  and  _279
REMARK  115  A    between atoms: _279  and  _280
REMARK  116  A    between atoms: _280  and  _281
REMARK  117  A    between atoms: _290  and  _292
REMARK  118  A    between atoms: _292  and  _293
REMARK  119  A    between atoms: _292  and  _295
REMARK  120  A    between atoms: _298  and  _300
REMARK  121  A    between atoms: _300  and  _301
REMARK  122  A    between atoms: _300  and  _303
REMARK  123  A    between atoms: _303  and  _304
REMARK  124  A    between atoms: _307  and  _309
REMARK  125  A    between atoms: _309  and  _310
REMARK  126  A    between atoms: _309  and  _312
REMARK  127  A    between atoms: _312  and  _313
REMARK  128  A    between atoms: _316  and  _318
REMARK  129  A    between atoms: _318  and  _319
REMARK  130  A    between atoms: _321  and  _323
REMARK  131  A    between atoms: _323  and  _324
REMARK  132  A    between atoms: _323  and  _326
REMARK  133  A    between atoms: _326  and  _327
REMARK  134  A    between atoms: _330  and  _332
REMARK  135  A    between atoms: _332  and  _333
REMARK  136  A    between atoms: _332  and  _335
REMARK  137  A    between atoms: _335  and  _336
REMARK  138  A    between atoms: _339  and  _341
REMARK  139  A    between atoms: _341  and  _342
REMARK  140  A    between atoms: _341  and  _344
REMARK  141  A    between atoms: _344  and  _345
REMARK  142  A    between atoms: _345  and  _346
REMARK  143  A    between atoms: _346  and  _347
REMARK  144  A    between atoms: _356  and  _358
REMARK  145  A    between atoms: _358  and  _359
REMARK  146  A    between atoms: _358  and  _361
REMARK  147  A    between atoms: _361  and  _362
REMARK  148  A    between atoms: _367  and  _368
REMARK  149  A    between atoms: _370  and  _372
REMARK  150  A    between atoms: _372  and  _373
REMARK  151  A    between atoms: _372  and  _375
REMARK  152  A    between atoms: _378  and  _380
REMARK  153  A    between atoms: _380  and  _381
REMARK  154  A    between atoms: _380  and  _383
REMARK  155  A    between atoms: _383  and  _384
REMARK  156  A    between atoms: _384  and  _385
REMARK  157  A    between atoms: _385  and  _386
REMARK  158  A    between atoms: _395  and  _397
REMARK  159  A    between atoms: _397  and  _398
REMARK  160  A    between atoms: _397  and  _400
REMARK  161  A    between atoms: _400  and  _401
REMARK  162  A    between atoms: _406  and  _407
REMARK  163  A    between atoms: _409  and  _411
REMARK  164  A    between atoms: _411  and  _412
REMARK  165  A    between atoms: _414  and  _416
REMARK  166  A    between atoms: _416  and  _417
REMARK  167  A    between atoms: _416  and  _419
REMARK  168  A    between atoms: _419  and  _420
REMARK  169  A    between atoms: _420  and  _723
REMARK  170  A    between atoms: _421  and  _423
REMARK  171  A    between atoms: _423  and  _424
REMARK  172  A    between atoms: _423  and  _426
REMARK  173  A    between atoms: _426  and  _427
REMARK  174  A    between atoms: _432  and  _434
REMARK  175  A    between atoms: _434  and  _435
REMARK  176  A    between atoms: _434  and  _437
REMARK  177  A    between atoms: _437  and  _438
REMARK  178  A    between atoms: _443  and  _444
REMARK  179  A    between atoms: _446  and  _448
REMARK  180  A    between atoms: _448  and  _449
REMARK  181  A    between atoms: _452  and  _454
REMARK  182  A    between atoms: _454  and  _455
REMARK  183  A    between atoms: _454  and  _457
REMARK  184  A    between atoms: _457  and  _458
REMARK  185  A    between atoms: _463  and  _464
REMARK  186  A    between atoms: _466  and  _468
REMARK  187  A    between atoms: _468  and  _469
REMARK  188  A    between atoms: _468  and  _471
REMARK  189  A    between atoms: _471  and  _472
REMARK  190  A    between atoms: _477  and  _478
REMARK  191  A    between atoms: _480  and  _482
REMARK  192  A    between atoms: _482  and  _483
REMARK  193  A    between atoms: _482  and  _485
REMARK  194  A    between atoms: _485  and  _486
REMARK  195  A    between atoms: _489  and  _491
REMARK  196  A    between atoms: _491  and  _492
REMARK  197  A    between atoms: _491  and  _494
REMARK  198  A    between atoms: _494  and  _495
REMARK  199  A    between atoms: _505  and  _507
REMARK  200  A    between atoms: _507  and  _508
REMARK  201  A    between atoms: _511  and  _513
REMARK  202  A    between atoms: _513  and  _514
REMARK  203  A    between atoms: _517  and  _519
REMARK  204  A    between atoms: _519  and  _520
REMARK  205  A    between atoms: _519  and  _522
REMARK  206  A    between atoms: _522  and  _523
REMARK  207  A    between atoms: _523  and  _524
REMARK  208  A    between atoms: _529  and  _531
REMARK  209  A    between atoms: _531  and  _532
REMARK  210  A    between atoms: _531  and  _534
REMARK  211  A    between atoms: _534  and  _535
REMARK  212  A    between atoms: _538  and  _540
REMARK  213  A    between atoms: _540  and  _541
REMARK  214  A    between atoms: _540  and  _543
REMARK  215  A    between atoms: _543  and  _544
REMARK  216  A    between atoms: _547  and  _549
REMARK  217  A    between atoms: _549  and  _550
REMARK  218  A    between atoms: _549  and  _552
REMARK  219  A    between atoms: _552  and  _553
REMARK  220  A    between atoms: _553  and  _554
REMARK  221  A    between atoms: _554  and  _555
REMARK  222  A    between atoms: _555  and  _556
REMARK  223  A    between atoms: _560  and  _562
REMARK  224  A    between atoms: _562  and  _563
REMARK  225  A    between atoms: _562  and  _565
REMARK  226  A    between atoms: _565  and  _566
REMARK  227  A    between atoms: _571  and  _573
REMARK  228  A    between atoms: _573  and  _574
REMARK  229  A    between atoms: _573  and  _576
REMARK  230  A    between atoms: _576  and  _577
REMARK  231  A    between atoms: _577  and  _578
REMARK  232  A    between atoms: _578  and  _579
REMARK  233  A    between atoms: _579  and  _580
REMARK  234  A    between atoms: _584  and  _586
REMARK  235  A    between atoms: _586  and  _587
REMARK  236  A    between atoms: _586  and  _589
REMARK  237  A    between atoms: _589  and  _590
REMARK  238  A    between atoms: _600  and  _602
REMARK  239  A    between atoms: _602  and  _603
REMARK  240  A    between atoms: _602  and  _605
REMARK  241  A    between atoms: _605  and  _606
REMARK  242  A    between atoms: _606  and  _607
REMARK  243  A    between atoms: _610  and  _612
REMARK  244  A    between atoms: _612  and  _613
REMARK  245  A    between atoms: _616  and  _618
REMARK  246  A    between atoms: _618  and  _619
REMARK  247  A    between atoms: _622  and  _624
REMARK  248  A    between atoms: _624  and  _625
REMARK  249  A    between atoms: _624  and  _627
REMARK  250  A    between atoms: _627  and  _628
REMARK  251  A    between atoms: _633  and  _635
REMARK  252  A    between atoms: _635  and  _636
REMARK  253  A    between atoms: _635  and  _638
REMARK  254  A    between atoms: _641  and  _643
REMARK  255  A    between atoms: _643  and  _644
REMARK  256  A    between atoms: _647  and  _649
REMARK  257  A    between atoms: _649  and  _650
REMARK  258  A    between atoms: _649  and  _652
REMARK  259  A    between atoms: _652  and  _653
REMARK  260  A    between atoms: _653  and  _654
REMARK  261  A    between atoms: _659  and  _661
REMARK  262  A    between atoms: _661  and  _662
REMARK  263  A    between atoms: _661  and  _664
REMARK  264  A    between atoms: _664  and  _665
REMARK  265  A    between atoms: _668  and  _670
REMARK  266  A    between atoms: _670  and  _671
REMARK  267  A    between atoms: _670  and  _673
REMARK  268  A    between atoms: _673  and  _674
REMARK  269  A    between atoms: _674  and  _675
REMARK  270  A    between atoms: _675  and  _676
REMARK  271  A    between atoms: _685  and  _687
REMARK  272  A    between atoms: _687  and  _688
REMARK  273  A    between atoms: _687  and  _690
REMARK  274  A    between atoms: _690  and  _691
REMARK  275  A    between atoms: _696  and  _697
REMARK  276  A    between atoms: _699  and  _701
REMARK  277  A    between atoms: _701  and  _702
REMARK  278  A    between atoms: _701  and  _704
REMARK  279  A    between atoms: _704  and  _705
REMARK  280  A    between atoms: _708  and  _710
REMARK  281  A    between atoms: _710  and  _711
REMARK  282  A    between atoms: _710  and  _713
REMARK  283  A    between atoms: _713  and  _714
REMARK  284  A    between atoms: _717  and  _719
REMARK  285  A    between atoms: _719  and  _720
REMARK  286  A    between atoms: _719  and  _722
REMARK  287  A    between atoms: _722  and  _723
REMARK  288  A    between atoms: _724  and  _726
REMARK  289  A    between atoms: _726  and  _727
REMARK  290  A    between atoms: _726  and  _729
REMARK  291  A    between atoms: _732  and  _734
REMARK  292  A    between atoms: _734  and  _735
REMARK  293  A    between atoms: _734  and  _737
REMARK  294  A    between atoms: _737  and  _738
REMARK  295  A    between atoms: _738  and  _739
REMARK  296  A    between atoms: _742  and  _744
REMARK  297  A    between atoms: _744  and  _745
REMARK  298  A    between atoms: _744  and  _747
REMARK  299  A    between atoms: _747  and  _748
REMARK  300  A    between atoms: _758  and  _760
REMARK  301  A    between atoms: _760  and  _761
REMARK  302  A    between atoms: _760  and  _763
REMARK  303  A    between atoms: _763  and  _764
REMARK  304  A    between atoms: _767  and  _769
REMARK  305  A    between atoms: _769  and  _770
REMARK  306  A    between atoms: _769  and  _772
REMARK  307  A    between atoms: _772  and  _773
REMARK  308  A    between atoms: _773  and  _774
REMARK  309  A    between atoms: _774  and  _775
REMARK  310  A    between atoms: _784  and  _786
REMARK  311  A    between atoms: _786  and  _787
REMARK  312  A    between atoms: _786  and  _789
REMARK  313  A    between atoms: _789  and  _790
REMARK  314  A    between atoms: _795  and  _796
REMARK                            x       y       z     vdW  Elec       q    Type
REMARK                         _______ _______ _______ _____ _____    ______ ____
ROOT
ATOM      1  CG  TYR A   1      38.710   2.708  22.432  0.00  0.00    -0.020 A 
ATOM      2  CD2 TYR A   1      37.881   1.789  23.068  0.00  0.00    -0.001 A 
ATOM      3  CE2 TYR A   1      38.330   1.012  24.137  0.00  0.00    +0.036 A 
ATOM      4  CZ  TYR A   1      39.635   1.143  24.583  0.00  0.00    +0.134 A 
ATOM      5  CE1 TYR A   1      40.496   2.066  23.977  0.00  0.00    +0.036 A 
ATOM      6  CD1 TYR A   1      40.023   2.829  22.865  0.00  0.00    -0.001 A 
ENDROOT
BRANCH   4   7
ATOM      7  OH  TYR A   1      40.076   0.400  25.659  0.00  0.00    -0.506 OA
ATOM      8  HH  TYR A   1      39.528   0.617  26.455  0.00  0.00    +0.292 HD
ENDBRANCH   4   7
BRANCH   1   9
ATOM      9  CB  TYR A   1      38.167   3.470  21.223  0.00  0.00    +0.051 C 
BRANCH   9  10
ATOM     10  CA  TYR A   1      39.063   4.582  20.645  0.00  0.00    +0.137 C 
BRANCH  10  11
ATOM     11  N   TYR A   1      39.112   5.724  21.535  0.00  0.00    -0.239 NA
ATOM     12  H   TYR A   1      38.580   5.720  22.429  0.00  0.00    +0.142 HD
ENDBRANCH  10  11
BRANCH  10  13
ATOM     13  C   TYR A   1      38.487   4.914  19.276  0.00  0.00    +0.224 C 
ATOM     14  O   TYR A   1      38.912   4.375  18.262  0.00  0.00    -0.287 OA
ENDBRANCH  10  13
ENDBRANCH   9  10
ENDBRANCH   1   9
TORSDOF 5
REMARK  Name = ../refined-set-2016/3qfd/3qfd_pocket.pdb
REMARK  314 active torsions:
REMARK  status: ('A' for Active; 'I' for Inactive)
REMARK    1  A    between atoms: _1  and  _3
REMARK    2  A    between atoms: _3  and  _4
REMARK    3  A    between atoms: _3  and  _6
REMARK    4  A    between atoms: _6  and  _7
REMARK    5  A    between atoms: _7  and  _8
REMARK    6  A    between atoms: _10  and  _12
REMARK    7  A    between atoms: _12  and  _13
REMARK    8  A    between atoms: _12  and  _15
REMARK    9  A    between atoms: _15  and  _16
REMARK   10  A    between atoms: _16  and  _17
REMARK   11  A    between atoms: _17  and  _18
REMARK   12  A    between atoms: _27  and  _29
REMARK   13  A    between atoms: _29  and  _30
REMARK   14  A    between atoms: _29  and  _32
REMARK   15  A    between atoms: _32  and  _33
REMARK   16  A    between atoms: _38  and  _39
REMARK   17  A    between atoms: _41  and  _43
REMARK   18  A    between atoms: _43  and  _44
REMARK   19  A    between atoms: _43  and  _46
REMARK   20  A    between atoms: _46  and  _47
REMARK   21  A    between atoms: _53  and  _55
REMARK   22  A    between atoms: _55  and  _56
REMARK   23  A    between atoms: _55  and  _58
REMARK   24  A    between atoms: _58  and  _59
REMARK   25  A    between atoms: _65  and  _67
REMARK   26  A    between atoms: _67  and  _68
REMARK   27  A    between atoms: _71  and  _73
REMARK   28  A    between atoms: _73  and  _74
REMARK   29  A    between atoms: _73  and  _76
REMARK   30  A    between atoms: _79  and  _81
REMARK   31  A    between atoms: _81  and  _82
REMARK   32  A    between atoms: _84  and  _86
REMARK   33  A    between atoms: _86  and  _87
REMARK   34  A    between atoms: _86  and  _89
REMARK   35  A    between atoms: _92  and  _94
REMARK   36  A    between atoms: _94  and  _95
REMARK   37  A    between atoms: _94  and  _97
REMARK   38  A    between atoms: _97  and  _98
REMARK   39  A    between atoms: _104  and  _106
REMARK   40  A    between atoms: _106  and  _107
REMARK   41  A    between atoms: _106  and  _109
REMARK   42  A    between atoms: _112  and  _114
REMARK   43  A    between atoms: _114  and  _115
REMARK   44  A    between atoms: _114  and  _117
REMARK   45  A    between atoms: _117  and  _118
REMARK   46  A    between atoms: _118  and  _119
REMARK   47  A    between atoms: _121  and  _123
REMARK   48  A    between atoms: _123  and  _124
REMARK   49  A    between atoms: _123  and  _126
REMARK   50  A    between atoms: _126  and  _127
REMARK   51  A    between atoms: _130  and  _132
REMARK   52  A    between atoms: _132  and  _133
REMARK   53  A    between atoms: _132  and  _135
REMARK   54  A    between atoms: _135  and  _136
REMARK   55  A    between atoms: _136  and  _137
REMARK   56  A    between atoms: _140  and  _142
REMARK   57  A    between atoms: _142  and  _143
REMARK   58  A    between atoms: _142  and  _145
REMARK   59  A    between atoms: _145  and  _146
REMARK   60  A    between atoms: _151  and  _152
REMARK   61  A    between atoms: _154  and  _156
REMARK   62  A    between atoms: _156  and  _157
REMARK   63  A    between atoms: _159  and  _161
REMARK   64  A    between atoms: _161  and  _162
REMARK   65  A    between atoms: _161  and  _164
REMARK   66  A    between atoms: _164  and  _165
REMARK   67  A    between atoms: _165  and  _166
REMARK   68  A    between atoms: _169  and  _171
REMARK   69  A    between atoms: _171  and  _172
REMARK   70  A    between atoms: _171  and  _174
REMARK   71  A    between atoms: _174  and  _175
REMARK   72  A    between atoms: _178  and  _180
REMARK   73  A    between atoms: _180  and  _181
REMARK   74  A    between atoms: _180  and  _183
REMARK   75  A    between atoms: _183  and  _184
REMARK   76  A    between atoms: _184  and  _185
REMARK   77  A    between atoms: _185  and  _186
REMARK   78  A    between atoms: _195  and  _197
REMARK   79  A    between atoms: _197  and  _198
REMARK   80  A    between atoms: _197  and  _200
REMARK   81  A    between atoms: _200  and  _201
REMARK   82  A    between atoms: _201  and  _202
REMARK   83  A    between atoms: _202  and  _203
REMARK   84  A    between atoms: _203  and  _204
REMARK   85  A    between atoms: _208  and  _210
REMARK   86  A    between atoms: _210  and  _211
REMARK   87  A    between atoms: _210  and  _213
REMARK   88  A    between atoms: _216  and  _218
REMARK   89  A    between atoms: _218  and  _219
REMARK   90  A    between atoms: _222  and  _224
REMARK   91  A    between atoms: _224  and  _225
REMARK   92  A    between atoms: _224  and  _227
REMARK   93  A    between atoms: _227  and  _228
REMARK   94  A    between atoms: _233  and  _235
REMARK   95  A    between atoms: _235  and  _236
REMARK   96  A    between atoms: _235  and  _238
REMARK   97  A    between atoms: _238  and  _239
REMARK   98  A    between atoms: _241  and  _243
REMARK   99  A    between atoms: _243  and  _244
REMARK  100  A    between atoms: _243  and  _246
REMARK  101  A    between atoms: _246  and  _247
REMARK  102  A    between atoms: _247  and  _248
REMARK  103  A    between atoms: _253  and  _255
REMARK  104  A    between atoms: _255  and  _256
REMARK  105  A    between atoms: _255  and  _258
REMARK  106  A    between atoms: _258  and  _259
REMARK  107  A    between atoms: _262  and  _264
REMARK  108  A    between atoms: _264  and  _265
REMARK  109  A    between atoms: _264  and  _267
REMARK  110  A    between atoms: _267  and  _268
REMARK  111  A    between atoms: _273  and  _275
REMARK  112  A    between atoms: _275  and  _276
REMARK  113  A    between atoms: _275  and  _278
REMARK  114  A    between atoms: _278  and  _279
REMARK  115  A    between atoms: _279  and  _280
REMARK  116  A    between atoms: _280  and  _281
REMARK  117  A    between atoms: _290  and  _292
REMARK  118  A    between atoms: _292  and  _293
REMARK  119  A    between atoms: _292  and  _295
REMARK  120  A    between atoms: _298  and  _300
REMARK  121  A    between atoms: _300  and  _301
REMARK  122  A    between atoms: _300  and  _303
REMARK  123  A    between atoms: _303  and  _304
REMARK  124  A    between atoms: _307  and  _309
REMARK  125  A    between atoms: _309  and  _310
REMARK  126  A    between atoms: _309  and  _312
REMARK  127  A    between atoms: _312  and  _313
REMARK  128  A    between atoms: _316  and  _318
REMARK  129  A    between atoms: _318  and  _319
REMARK  130  A    between atoms: _321  and  _323
REMARK  131  A    between atoms: _323  and  _324
REMARK  132  A    between atoms: _323  and  _326
REMARK  133  A    between atoms: _326  and  _327
REMARK  134  A    between atoms: _330  and  _332
REMARK  135  A    between atoms: _332  and  _333
REMARK  136  A    between atoms: _332  and  _335
REMARK  137  A    between atoms: _335  and  _336
REMARK  138  A    between atoms: _339  and  _341
REMARK  139  A    between atoms: _341  and  _342
REMARK  140  A    between atoms: _341  and  _344
REMARK  141  A    between atoms: _344  and  _345
REMARK  142  A    between atoms: _345  and  _346
REMARK  143  A    between atoms: _346  and  _347
REMARK  144  A    between atoms: _356  and  _358
REMARK  145  A    between atoms: _358  and  _359
REMARK  146  A    between atoms: _358  and  _361
REMARK  147  A    between atoms: _361  and  _362
REMARK  148  A    between atoms: _367  and  _368
REMARK  149  A    between atoms: _370  and  _372
REMARK  150  A    between atoms: _372  and  _373
REMARK  151  A    between atoms: _372  and  _375
REMARK  152  A    between atoms: _378  and  _380
REMARK  153  A    between atoms: _380  and  _381
REMARK  154  A    between atoms: _380  and  _383
REMARK  155  A    between atoms: _383  and  _384
REMARK  156  A    between atoms: _384  and  _385
REMARK  157  A    between atoms: _385  and  _386
REMARK  158  A    between atoms: _395  and  _397
REMARK  159  A    between atoms: _397  and  _398
REMARK  160  A    between atoms: _397  and  _400
REMARK  161  A    between atoms: _400  and  _401
REMARK  162  A    between atoms: _406  and  _407
REMARK  163  A    between atoms: _409  and  _411
REMARK  164  A    between atoms: _411  and  _412
REMARK  165  A    between atoms: _414  and  _416
REMARK  166  A    between atoms: _416  and  _417
REMARK  167  A    between atoms: _416  and  _419
REMARK  168  A    between atoms: _419  and  _420
REMARK  169  A    between atoms: _420  and  _723
REMARK  170  A    between atoms: _421  and  _423
REMARK  171  A    between atoms: _423  and  _424
REMARK  172  A    between atoms: _423  and  _426
REMARK  173  A    between atoms: _426  and  _427
REMARK  174  A    between atoms: _432  and  _434
REMARK  175  A    between atoms: _434  and  _435
REMARK  176  A    between atoms: _434  and  _437
REMARK  177  A    between atoms: _437  and  _438
REMARK  178  A    between atoms: _443  and  _444
REMARK  179  A    between atoms: _446  and  _448
REMARK  180  A    between atoms: _448  and  _449
REMARK  181  A    between atoms: _452  and  _454
REMARK  182  A    between atoms: _454  and  _455
REMARK  183  A    between atoms: _454  and  _457
REMARK  184  A    between atoms: _457  and  _458
REMARK  185  A    between atoms: _463  and  _464
REMARK  186  A    between atoms: _466  and  _468
REMARK  187  A    between atoms: _468  and  _469
REMARK  188  A    between atoms: _468  and  _471
REMARK  189  A    between atoms: _471  and  _472
REMARK  190  A    between atoms: _477  and  _478
REMARK  191  A    between atoms: _480  and  _482
REMARK  192  A    between atoms: _482  and  _483
REMARK  193  A    between atoms: _482  and  _485
REMARK  194  A    between atoms: _485  and  _486
REMARK  195  A    between atoms: _489  and  _491
REMARK  196  A    between atoms: _491  and  _492
REMARK  197  A    between atoms: _491  and  _494
REMARK  198  A    between atoms: _494  and  _495
REMARK  199  A    between atoms: _505  and  _507
REMARK  200  A    between atoms: _507  and  _508
REMARK  201  A    between atoms: _511  and  _513
REMARK  202  A    between atoms: _513  and  _514
REMARK  203  A    between atoms: _517  and  _519
REMARK  204  A    between atoms: _519  and  _520
REMARK  205  A    between atoms: _519  and  _522
REMARK  206  A    between atoms: _522  and  _523
REMARK  207  A    between atoms: _523  and  _524
REMARK  208  A    between atoms: _529  and  _531
REMARK  209  A    between atoms: _531  and  _532
REMARK  210  A    between atoms: _531  and  _534
REMARK  211  A    between atoms: _534  and  _535
REMARK  212  A    between atoms: _538  and  _540
REMARK  213  A    between atoms: _540  and  _541
REMARK  214  A    between atoms: _540  and  _543
REMARK  215  A    between atoms: _543  and  _544
REMARK  216  A    between atoms: _547  and  _549
REMARK  217  A    between atoms: _549  and  _550
REMARK  218  A    between atoms: _549  and  _552
REMARK  219  A    between atoms: _552  and  _553
REMARK  220  A    between atoms: _553  and  _554
REMARK  221  A    between atoms: _554  and  _555
REMARK  222  A    between atoms: _555  and  _556
REMARK  223  A    between atoms: _560  and  _562
REMARK  224  A    between atoms: _562  and  _563
REMARK  225  A    between atoms: _562  and  _565
REMARK  226  A    between atoms: _565  and  _566
REMARK  227  A    between atoms: _571  and  _573
REMARK  228  A    between atoms: _573  and  _574
REMARK  229  A    between atoms: _573  and  _576
REMARK  230  A    between atoms: _576  and  _577
REMARK  231  A    between atoms: _577  and  _578
REMARK  232  A    between atoms: _578  and  _579
REMARK  233  A    between atoms: _579  and  _580
REMARK  234  A    between atoms: _584  and  _586
REMARK  235  A    between atoms: _586  and  _587
REMARK  236  A    between atoms: _586  and  _589
REMARK  237  A    between atoms: _589  and  _590
REMARK  238  A    between atoms: _600  and  _602
REMARK  239  A    between atoms: _602  and  _603
REMARK  240  A    between atoms: _602  and  _605
REMARK  241  A    between atoms: _605  and  _606
REMARK  242  A    between atoms: _606  and  _607
REMARK  243  A    between atoms: _610  and  _612
REMARK  244  A    between atoms: _612  and  _613
REMARK  245  A    between atoms: _616  and  _618
REMARK  246  A    between atoms: _618  and  _619
REMARK  247  A    between atoms: _622  and  _624
REMARK  248  A    between atoms: _624  and  _625
REMARK  249  A    between atoms: _624  and  _627
REMARK  250  A    between atoms: _627  and  _628
REMARK  251  A    between atoms: _633  and  _635
REMARK  252  A    between atoms: _635  and  _636
REMARK  253  A    between atoms: _635  and  _638
REMARK  254  A    between atoms: _641  and  _643
REMARK  255  A    between atoms: _643  and  _644
REMARK  256  A    between atoms: _647  and  _649
REMARK  257  A    between atoms: _649  and  _650
REMARK  258  A    between atoms: _649  and  _652
REMARK  259  A    between atoms: _652  and  _653
REMARK  260  A    between atoms: _653  and  _654
REMARK  261  A    between atoms: _659  and  _661
REMARK  262  A    between atoms: _661  and  _662
REMARK  263  A    between atoms: _661  and  _664
REMARK  264  A    between atoms: _664  and  _665
REMARK  265  A    between atoms: _668  and  _670
REMARK  266  A    between atoms: _670  and  _671
REMARK  267  A    between atoms: _670  and  _673
REMARK  268  A    between atoms: _673  and  _674
REMARK  269  A    between atoms: _674  and  _675
REMARK  270  A    between atoms: _675  and  _676
REMARK  271  A    between atoms: _685  and  _687
REMARK  272  A    between atoms: _687  and  _688
REMARK  273  A    between atoms: _687  and  _690
REMARK  274  A    between atoms: _690  and  _691
REMARK  275  A    between atoms: _696  and  _697
REMARK  276  A    between atoms: _699  and  _701
REMARK  277  A    between atoms: _701  and  _702
REMARK  278  A    between atoms: _701  and  _704
REMARK  279  A    between atoms: _704  and  _705
REMARK  280  A    between atoms: _708  and  _710
REMARK  281  A    between atoms: _710  and  _711
REMARK  282  A    between atoms: _710  and  _713
REMARK  283  A    between atoms: _713  and  _714
REMARK  284  A    between atoms: _717  and  _719
REMARK  285  A    between atoms: _719  and  _720
REMARK  286  A    between atoms: _719  and  _722
REMARK  287  A    between atoms: _722  and  _723
REMARK  288  A    between atoms: _724  and  _726
REMARK  289  A    between atoms: _726  and  _727
REMARK  290  A    between atoms: _726  and  _729
REMARK  291  A    between atoms: _732  and  _734
REMARK  292  A    between atoms: _734  and  _735
REMARK  293  A    between atoms: _734  and  _737
REMARK  294  A    between atoms: _737  and  _738
REMARK  295  A    between atoms: _738  and  _739
REMARK  296  A    between atoms: _742  and  _744
REMARK  297  A    between atoms: _744  and  _745
REMARK  298  A    between atoms: _744  and  _747
REMARK  299  A    between atoms: _747  and  _748
REMARK  300  A    between atoms: _758  and  _760
REMARK  301  A    between atoms: _760  and  _761
REMARK  302  A    between atoms: _760  and  _763
REMARK  303  A    between atoms: _763  and  _764
REMARK  304  A    between atoms: _767  and  _769
REMARK  305  A    between atoms: _769  and  _770
REMARK  306  A    between atoms: _769  and  _772
REMARK  307  A    between atoms: _772  and  _773
REMARK  308  A    between atoms: _773  and  _774
REMARK  309  A    between atoms: _774  and  _775
REMARK  310  A    between atoms: _784  and  _786
REMARK  311  A    between atoms: _786  and  _787
REMARK  312  A    between atoms: _786  and  _789
REMARK  313  A    between atoms: _789  and  _790
REMARK  314  A    between atoms: _795  and  _796
REMARK                            x       y       z     vdW  Elec       q    Type
REMARK                         _______ _______ _______ _____ _____    ______ ____
ROOT
ATOM      1  CA  VAL A   1      27.170   4.483  27.231  0.00  0.00    +0.133 C 
ENDROOT
BRANCH   1   2
ATOM      2  CB  VAL A   1      28.495   4.291  27.994  0.00  0.00    +0.023 C 
ATOM      3  CG2 VAL A   1      28.487   4.968  29.223  0.00  0.00    +0.002 C 
ATOM      4  CG1 VAL A   1      29.599   4.836  27.185  0.00  0.00    +0.002 C 
ENDBRANCH   1   2
BRANCH   1   5
ATOM      5  N   VAL A   1      26.835   5.883  26.919  0.00  0.00    -0.239 NA
ATOM      6  H   VAL A   1      26.772   6.581  27.687  0.00  0.00    +0.142 HD
ENDBRANCH   1   5
BRANCH   1   7
ATOM      7  C   VAL A   1      25.995   3.869  27.971  0.00  0.00    +0.224 C 
ATOM      8  O   VAL A   1      25.326   4.526  28.784  0.00  0.00    -0.287 OA
ENDBRANCH   1   7
TORSDOF 3
REMARK  Name = ../refined-set-2016/3qfd/3qfd_pocket.pdb
REMARK  314 active torsions:
REMARK  status: ('A' for Active; 'I' for Inactive)
REMARK    1  A    between atoms: _1  and  _3
REMARK    2  A    between atoms: _3  and  _4
REMARK    3  A    between atoms: _3  and  _6
REMARK    4  A    between atoms: _6  and  _7
REMARK    5  A    between atoms: _7  and  _8
REMARK    6  A    between atoms: _10  and  _12
REMARK    7  A    between atoms: _12  and  _13
REMARK    8  A    between atoms: _12  and  _15
REMARK    9  A    between atoms: _15  and  _16
REMARK   10  A    between atoms: _16  and  _17
REMARK   11  A    between atoms: _17  and  _18
REMARK   12  A    between atoms: _27  and  _29
REMARK   13  A    between atoms: _29  and  _30
REMARK   14  A    between atoms: _29  and  _32
REMARK   15  A    between atoms: _32  and  _33
REMARK   16  A    between atoms: _38  and  _39
REMARK   17  A    between atoms: _41  and  _43
REMARK   18  A    between atoms: _43  and  _44
REMARK   19  A    between atoms: _43  and  _46
REMARK   20  A    between atoms: _46  and  _47
REMARK   21  A    between atoms: _53  and  _55
REMARK   22  A    between atoms: _55  and  _56
REMARK   23  A    between atoms: _55  and  _58
REMARK   24  A    between atoms: _58  and  _59
REMARK   25  A    between atoms: _65  and  _67
REMARK   26  A    between atoms: _67  and  _68
REMARK   27  A    between atoms: _71  and  _73
REMARK   28  A    between atoms: _73  and  _74
REMARK   29  A    between atoms: _73  and  _76
REMARK   30  A    between atoms: _79  and  _81
REMARK   31  A    between atoms: _81  and  _82
REMARK   32  A    between atoms: _84  and  _86
REMARK   33  A    between atoms: _86  and  _87
REMARK   34  A    between atoms: _86  and  _89
REMARK   35  A    between atoms: _92  and  _94
REMARK   36  A    between atoms: _94  and  _95
REMARK   37  A    between atoms: _94  and  _97
REMARK   38  A    between atoms: _97  and  _98
REMARK   39  A    between atoms: _104  and  _106
REMARK   40  A    between atoms: _106  and  _107
REMARK   41  A    between atoms: _106  and  _109
REMARK   42  A    between atoms: _112  and  _114
REMARK   43  A    between atoms: _114  and  _115
REMARK   44  A    between atoms: _114  and  _117
REMARK   45  A    between atoms: _117  and  _118
REMARK   46  A    between atoms: _118  and  _119
REMARK   47  A    between atoms: _121  and  _123
REMARK   48  A    between atoms: _123  and  _124
REMARK   49  A    between atoms: _123  and  _126
REMARK   50  A    between atoms: _126  and  _127
REMARK   51  A    between atoms: _130  and  _132
REMARK   52  A    between atoms: _132  and  _133
REMARK   53  A    between atoms: _132  and  _135
REMARK   54  A    between atoms: _135  and  _136
REMARK   55  A    between atoms: _136  and  _137
REMARK   56  A    between atoms: _140  and  _142
REMARK   57  A    between atoms: _142  and  _143
REMARK   58  A    between atoms: _142  and  _145
REMARK   59  A    between atoms: _145  and  _146
REMARK   60  A    between atoms: _151  and  _152
REMARK   61  A    between atoms: _154  and  _156
REMARK   62  A    between atoms: _156  and  _157
REMARK   63  A    between atoms: _159  and  _161
REMARK   64  A    between atoms: _161  and  _162
REMARK   65  A    between atoms: _161  and  _164
REMARK   66  A    between atoms: _164  and  _165
REMARK   67  A    between atoms: _165  and  _166
REMARK   68  A    between atoms: _169  and  _171
REMARK   69  A    between atoms: _171  and  _172
REMARK   70  A    between atoms: _171  and  _174
REMARK   71  A    between atoms: _174  and  _175
REMARK   72  A    between atoms: _178  and  _180
REMARK   73  A    between atoms: _180  and  _181
REMARK   74  A    between atoms: _180  and  _183
REMARK   75  A    between atoms: _183  and  _184
REMARK   76  A    between atoms: _184  and  _185
REMARK   77  A    between atoms: _185  and  _186
REMARK   78  A    between atoms: _195  and  _197
REMARK   79  A    between atoms: _197  and  _198
REMARK   80  A    between atoms: _197  and  _200
REMARK   81  A    between atoms: _200  and  _201
REMARK   82  A    between atoms: _201  and  _202
REMARK   83  A    between atoms: _202  and  _203
REMARK   84  A    between atoms: _203  and  _204
REMARK   85  A    between atoms: _208  and  _210
REMARK   86  A    between atoms: _210  and  _211
REMARK   87  A    between atoms: _210  and  _213
REMARK   88  A    between atoms: _216  and  _218
REMARK   89  A    between atoms: _218  and  _219
REMARK   90  A    between atoms: _222  and  _224
REMARK   91  A    between atoms: _224  and  _225
REMARK   92  A    between atoms: _224  and  _227
REMARK   93  A    between atoms: _227  and  _228
REMARK   94  A    between atoms: _233  and  _235
REMARK   95  A    between atoms: _235  and  _236
REMARK   96  A    between atoms: _235  and  _238
REMARK   97  A    between atoms: _238  and  _239
REMARK   98  A    between atoms: _241  and  _243
REMARK   99  A    between atoms: _243  and  _244
REMARK  100  A    between atoms: _243  and  _246
REMARK  101  A    between atoms: _246  and  _247
REMARK  102  A    between atoms: _247  and  _248
REMARK  103  A    between atoms: _253  and  _255
REMARK  104  A    between atoms: _255  and  _256
REMARK  105  A    between atoms: _255  and  _258
REMARK  106  A    between atoms: _258  and  _259
REMARK  107  A    between atoms: _262  and  _264
REMARK  108  A    between atoms: _264  and  _265
REMARK  109  A    between atoms: _264  and  _267
REMARK  110  A    between atoms: _267  and  _268
REMARK  111  A    between atoms: _273  and  _275
REMARK  112  A    between atoms: _275  and  _276
REMARK  113  A    between atoms: _275  and  _278
REMARK  114  A    between atoms: _278  and  _279
REMARK  115  A    between atoms: _279  and  _280
REMARK  116  A    between atoms: _280  and  _281
REMARK  117  A    between atoms: _290  and  _292
REMARK  118  A    between atoms: _292  and  _293
REMARK  119  A    between atoms: _292  and  _295
REMARK  120  A    between atoms: _298  and  _300
REMARK  121  A    between atoms: _300  and  _301
REMARK  122  A    between atoms: _300  and  _303
REMARK  123  A    between atoms: _303  and  _304
REMARK  124  A    between atoms: _307  and  _309
REMARK  125  A    between atoms: _309  and  _310
REMARK  126  A    between atoms: _309  and  _312
REMARK  127  A    between atoms: _312  and  _313
REMARK  128  A    between atoms: _316  and  _318
REMARK  129  A    between atoms: _318  and  _319
REMARK  130  A    between atoms: _321  and  _323
REMARK  131  A    between atoms: _323  and  _324
REMARK  132  A    between atoms: _323  and  _326
REMARK  133  A    between atoms: _326  and  _327
REMARK  134  A    between atoms: _330  and  _332
REMARK  135  A    between atoms: _332  and  _333
REMARK  136  A    between atoms: _332  and  _335
REMARK  137  A    between atoms: _335  and  _336
REMARK  138  A    between atoms: _339  and  _341
REMARK  139  A    between atoms: _341  and  _342
REMARK  140  A    between atoms: _341  and  _344
REMARK  141  A    between atoms: _344  and  _345
REMARK  142  A    between atoms: _345  and  _346
REMARK  143  A    between atoms: _346  and  _347
REMARK  144  A    between atoms: _356  and  _358
REMARK  145  A    between atoms: _358  and  _359
REMARK  146  A    between atoms: _358  and  _361
REMARK  147  A    between atoms: _361  and  _362
REMARK  148  A    between atoms: _367  and  _368
REMARK  149  A    between atoms: _370  and  _372
REMARK  150  A    between atoms: _372  and  _373
REMARK  151  A    between atoms: _372  and  _375
REMARK  152  A    between atoms: _378  and  _380
REMARK  153  A    between atoms: _380  and  _381
REMARK  154  A    between atoms: _380  and  _383
REMARK  155  A    between atoms: _383  and  _384
REMARK  156  A    between atoms: _384  and  _385
REMARK  157  A    between atoms: _385  and  _386
REMARK  158  A    between atoms: _395  and  _397
REMARK  159  A    between atoms: _397  and  _398
REMARK  160  A    between atoms: _397  and  _400
REMARK  161  A    between atoms: _400  and  _401
REMARK  162  A    between atoms: _406  and  _407
REMARK  163  A    between atoms: _409  and  _411
REMARK  164  A    between atoms: _411  and  _412
REMARK  165  A    between atoms: _414  and  _416
REMARK  166  A    between atoms: _416  and  _417
REMARK  167  A    between atoms: _416  and  _419
REMARK  168  A    between atoms: _419  and  _420
REMARK  169  A    between atoms: _420  and  _723
REMARK  170  A    between atoms: _421  and  _423
REMARK  171  A    between atoms: _423  and  _424
REMARK  172  A    between atoms: _423  and  _426
REMARK  173  A    between atoms: _426  and  _427
REMARK  174  A    between atoms: _432  and  _434
REMARK  175  A    between atoms: _434  and  _435
REMARK  176  A    between atoms: _434  and  _437
REMARK  177  A    between atoms: _437  and  _438
REMARK  178  A    between atoms: _443  and  _444
REMARK  179  A    between atoms: _446  and  _448
REMARK  180  A    between atoms: _448  and  _449
REMARK  181  A    between atoms: _452  and  _454
REMARK  182  A    between atoms: _454  and  _455
REMARK  183  A    between atoms: _454  and  _457
REMARK  184  A    between atoms: _457  and  _458
REMARK  185  A    between atoms: _463  and  _464
REMARK  186  A    between atoms: _466  and  _468
REMARK  187  A    between atoms: _468  and  _469
REMARK  188  A    between atoms: _468  and  _471
REMARK  189  A    between atoms: _471  and  _472
REMARK  190  A    between atoms: _477  and  _478
REMARK  191  A    between atoms: _480  and  _482
REMARK  192  A    between atoms: _482  and  _483
REMARK  193  A    between atoms: _482  and  _485
REMARK  194  A    between atoms: _485  and  _486
REMARK  195  A    between atoms: _489  and  _491
REMARK  196  A    between atoms: _491  and  _492
REMARK  197  A    between atoms: _491  and  _494
REMARK  198  A    between atoms: _494  and  _495
REMARK  199  A    between atoms: _505  and  _507
REMARK  200  A    between atoms: _507  and  _508
REMARK  201  A    between atoms: _511  and  _513
REMARK  202  A    between atoms: _513  and  _514
REMARK  203  A    between atoms: _517  and  _519
REMARK  204  A    between atoms: _519  and  _520
REMARK  205  A    between atoms: _519  and  _522
REMARK  206  A    between atoms: _522  and  _523
REMARK  207  A    between atoms: _523  and  _524
REMARK  208  A    between atoms: _529  and  _531
REMARK  209  A    between atoms: _531  and  _532
REMARK  210  A    between atoms: _531  and  _534
REMARK  211  A    between atoms: _534  and  _535
REMARK  212  A    between atoms: _538  and  _540
REMARK  213  A    between atoms: _540  and  _541
REMARK  214  A    between atoms: _540  and  _543
REMARK  215  A    between atoms: _543  and  _544
REMARK  216  A    between atoms: _547  and  _549
REMARK  217  A    between atoms: _549  and  _550
REMARK  218  A    between atoms: _549  and  _552
REMARK  219  A    between atoms: _552  and  _553
REMARK  220  A    between atoms: _553  and  _554
REMARK  221  A    between atoms: _554  and  _555
REMARK  222  A    between atoms: _555  and  _556
REMARK  223  A    between atoms: _560  and  _562
REMARK  224  A    between atoms: _562  and  _563
REMARK  225  A    between atoms: _562  and  _565
REMARK  226  A    between atoms: _565  and  _566
REMARK  227  A    between atoms: _571  and  _573
REMARK  228  A    between atoms: _573  and  _574
REMARK  229  A    between atoms: _573  and  _576
REMARK  230  A    between atoms: _576  and  _577
REMARK  231  A    between atoms: _577  and  _578
REMARK  232  A    between atoms: _578  and  _579
REMARK  233  A    between atoms: _579  and  _580
REMARK  234  A    between atoms: _584  and  _586
REMARK  235  A    between atoms: _586  and  _587
REMARK  236  A    between atoms: _586  and  _589
REMARK  237  A    between atoms: _589  and  _590
REMARK  238  A    between atoms: _600  and  _602
REMARK  239  A    between atoms: _602  and  _603
REMARK  240  A    between atoms: _602  and  _605
REMARK  241  A    between atoms: _605  and  _606
REMARK  242  A    between atoms: _606  and  _607
REMARK  243  A    between atoms: _610  and  _612
REMARK  244  A    between atoms: _612  and  _613
REMARK  245  A    between atoms: _616  and  _618
REMARK  246  A    between atoms: _618  and  _619
REMARK  247  A    between atoms: _622  and  _624
REMARK  248  A    between atoms: _624  and  _625
REMARK  249  A    between atoms: _624  and  _627
REMARK  250  A    between atoms: _627  and  _628
REMARK  251  A    between atoms: _633  and  _635
REMARK  252  A    between atoms: _635  and  _636
REMARK  253  A    between atoms: _635  and  _638
REMARK  254  A    between atoms: _641  and  _643
REMARK  255  A    between atoms: _643  and  _644
REMARK  256  A    between atoms: _647  and  _649
REMARK  257  A    between atoms: _649  and  _650
REMARK  258  A    between atoms: _649  and  _652
REMARK  259  A    between atoms: _652  and  _653
REMARK  260  A    between atoms: _653  and  _654
REMARK  261  A    between atoms: _659  and  _661
REMARK  262  A    between atoms: _661  and  _662
REMARK  263  A    between atoms: _661  and  _664
REMARK  264  A    between atoms: _664  and  _665
REMARK  265  A    between atoms: _668  and  _670
REMARK  266  A    between atoms: _670  and  _671
REMARK  267  A    between atoms: _670  and  _673
REMARK  268  A    between atoms: _673  and  _674
REMARK  269  A    between atoms: _674  and  _675
REMARK  270  A    between atoms: _675  and  _676
REMARK  271  A    between atoms: _685  and  _687
REMARK  272  A    between atoms: _687  and  _688
REMARK  273  A    between atoms: _687  and  _690
REMARK  274  A    between atoms: _690  and  _691
REMARK  275  A    between atoms: _696  and  _697
REMARK  276  A    between atoms: _699  and  _701
REMARK  277  A    between atoms: _701  and  _702
REMARK  278  A    between atoms: _701  and  _704
REMARK  279  A    between atoms: _704  and  _705
REMARK  280  A    between atoms: _708  and  _710
REMARK  281  A    between atoms: _710  and  _711
REMARK  282  A    between atoms: _710  and  _713
REMARK  283  A    between atoms: _713  and  _714
REMARK  284  A    between atoms: _717  and  _719
REMARK  285  A    between atoms: _719  and  _720
REMARK  286  A    between atoms: _719  and  _722
REMARK  287  A    between atoms: _722  and  _723
REMARK  288  A    between atoms: _724  and  _726
REMARK  289  A    between atoms: _726  and  _727
REMARK  290  A    between atoms: _726  and  _729
REMARK  291  A    between atoms: _732  and  _734
REMARK  292  A    between atoms: _734  and  _735
REMARK  293  A    between atoms: _734  and  _737
REMARK  294  A    between atoms: _737  and  _738
REMARK  295  A    between atoms: _738  and  _739
REMARK  296  A    between atoms: _742  and  _744
REMARK  297  A    between atoms: _744  and  _745
REMARK  298  A    between atoms: _744  and  _747
REMARK  299  A    between atoms: _747  and  _748
REMARK  300  A    between atoms: _758  and  _760
REMARK  301  A    between atoms: _760  and  _761
REMARK  302  A    between atoms: _760  and  _763
REMARK  303  A    between atoms: _763  and  _764
REMARK  304  A    between atoms: _767  and  _769
REMARK  305  A    between atoms: _769  and  _770
REMARK  306  A    between atoms: _769  and  _772
REMARK  307  A    between atoms: _772  and  _773
REMARK  308  A    between atoms: _773  and  _774
REMARK  309  A    between atoms: _774  and  _775
REMARK  310  A    between atoms: _784  and  _786
REMARK  311  A    between atoms: _786  and  _787
REMARK  312  A    between atoms: _786  and  _789
REMARK  313  A    between atoms: _789  and  _790
REMARK  314  A    between atoms: _795  and  _796
REMARK                            x       y       z     vdW  Elec       q    Type
REMARK                         _______ _______ _______ _____ _____    ______ ____
ROOT
ATOM      1  NE  ARG A   1      28.860  -2.907  32.668  0.00  0.00    -0.265 N 
ATOM      2  HE  ARG A   1      28.903  -3.937  32.533  0.00  0.00    +0.259 HD
ATOM      3  CZ  ARG A   1      29.982  -2.260  32.482  0.00  0.00    +0.342 C 
ATOM      4  NH2 ARG A   1      30.106  -0.950  32.628  0.00  0.00    -0.292 N 
ATOM      5 HH21 ARG A   1      29.283  -0.377  32.905  0.00  0.00    +0.255 HD
ATOM      6 HH22 ARG A   1      31.026  -0.493  32.465  0.00  0.00    +0.255 HD
ATOM      7  NH1 ARG A   1      31.021  -2.969  32.152  0.00  0.00    -0.292 N 
ATOM      8 HH11 ARG A   1      30.935  -4.000  32.048  0.00  0.00    +0.255 HD
ATOM      9 HH12 ARG A   1      31.938  -2.505  31.992  0.00  0.00    +0.255 HD
ENDROOT
BRANCH   1  10
ATOM     10  CD  ARG A   1      27.572  -2.374  33.036  0.00  0.00    +0.174 C 
BRANCH  10  11
ATOM     11  CG  ARG A   1      26.655  -2.557  31.846  0.00  0.00    +0.045 C 
BRANCH  11  12
ATOM     12  CB  ARG A   1      26.272  -1.221  31.278  0.00  0.00    +0.029 C 
BRANCH  12  13
ATOM     13  CA  ARG A   1      25.123  -1.274  30.259  0.00  0.00    +0.133 C 
BRANCH  13  14
ATOM     14  N   ARG A   1      24.765   0.072  29.857  0.00  0.00    -0.239 NA
ATOM     15  H   ARG A   1      24.197   0.668  30.492  0.00  0.00    +0.142 HD
ENDBRANCH  13  14
BRANCH  13  16
ATOM     16  C   ARG A   1      23.902  -1.915  30.882  0.00  0.00    +0.224 C 
ATOM     17  O   ARG A   1      23.157  -1.251  31.608  0.00  0.00    -0.287 OA
ENDBRANCH  13  16
ENDBRANCH  12  13
ENDBRANCH  11  12
ENDBRANCH  10  11
ENDBRANCH   1  10
TORSDOF 6
REMARK  Name = ../refined-set-2016/3qfd/3qfd_pocket.pdb
REMARK  314 active torsions:
REMARK  status: ('A' for Active; 'I' for Inactive)
REMARK    1  A    between atoms: _1  and  _3
REMARK    2  A    between atoms: _3  and  _4
REMARK    3  A    between atoms: _3  and  _6
REMARK    4  A    between atoms: _6  and  _7
REMARK    5  A    between atoms: _7  and  _8
REMARK    6  A    between atoms: _10  and  _12
REMARK    7  A    between atoms: _12  and  _13
REMARK    8  A    between atoms: _12  and  _15
REMARK    9  A    between atoms: _15  and  _16
REMARK   10  A    between atoms: _16  and  _17
REMARK   11  A    between atoms: _17  and  _18
REMARK   12  A    between atoms: _27  and  _29
REMARK   13  A    between atoms: _29  and  _30
REMARK   14  A    between atoms: _29  and  _32
REMARK   15  A    between atoms: _32  and  _33
REMARK   16  A    between atoms: _38  and  _39
REMARK   17  A    between atoms: _41  and  _43
REMARK   18  A    between atoms: _43  and  _44
REMARK   19  A    between atoms: _43  and  _46
REMARK   20  A    between atoms: _46  and  _47
REMARK   21  A    between atoms: _53  and  _55
REMARK   22  A    between atoms: _55  and  _56
REMARK   23  A    between atoms: _55  and  _58
REMARK   24  A    between atoms: _58  and  _59
REMARK   25  A    between atoms: _65  and  _67
REMARK   26  A    between atoms: _67  and  _68
REMARK   27  A    between atoms: _71  and  _73
REMARK   28  A    between atoms: _73  and  _74
REMARK   29  A    between atoms: _73  and  _76
REMARK   30  A    between atoms: _79  and  _81
REMARK   31  A    between atoms: _81  and  _82
REMARK   32  A    between atoms: _84  and  _86
REMARK   33  A    between atoms: _86  and  _87
REMARK   34  A    between atoms: _86  and  _89
REMARK   35  A    between atoms: _92  and  _94
REMARK   36  A    between atoms: _94  and  _95
REMARK   37  A    between atoms: _94  and  _97
REMARK   38  A    between atoms: _97  and  _98
REMARK   39  A    between atoms: _104  and  _106
REMARK   40  A    between atoms: _106  and  _107
REMARK   41  A    between atoms: _106  and  _109
REMARK   42  A    between atoms: _112  and  _114
REMARK   43  A    between atoms: _114  and  _115
REMARK   44  A    between atoms: _114  and  _117
REMARK   45  A    between atoms: _117  and  _118
REMARK   46  A    between atoms: _118  and  _119
REMARK   47  A    between atoms: _121  and  _123
REMARK   48  A    between atoms: _123  and  _124
REMARK   49  A    between atoms: _123  and  _126
REMARK   50  A    between atoms: _126  and  _127
REMARK   51  A    between atoms: _130  and  _132
REMARK   52  A    between atoms: _132  and  _133
REMARK   53  A    between atoms: _132  and  _135
REMARK   54  A    between atoms: _135  and  _136
REMARK   55  A    between atoms: _136  and  _137
REMARK   56  A    between atoms: _140  and  _142
REMARK   57  A    between atoms: _142  and  _143
REMARK   58  A    between atoms: _142  and  _145
REMARK   59  A    between atoms: _145  and  _146
REMARK   60  A    between atoms: _151  and  _152
REMARK   61  A    between atoms: _154  and  _156
REMARK   62  A    between atoms: _156  and  _157
REMARK   63  A    between atoms: _159  and  _161
REMARK   64  A    between atoms: _161  and  _162
REMARK   65  A    between atoms: _161  and  _164
REMARK   66  A    between atoms: _164  and  _165
REMARK   67  A    between atoms: _165  and  _166
REMARK   68  A    between atoms: _169  and  _171
REMARK   69  A    between atoms: _171  and  _172
REMARK   70  A    between atoms: _171  and  _174
REMARK   71  A    between atoms: _174  and  _175
REMARK   72  A    between atoms: _178  and  _180
REMARK   73  A    between atoms: _180  and  _181
REMARK   74  A    between atoms: _180  and  _183
REMARK   75  A    between atoms: _183  and  _184
REMARK   76  A    between atoms: _184  and  _185
REMARK   77  A    between atoms: _185  and  _186
REMARK   78  A    between atoms: _195  and  _197
REMARK   79  A    between atoms: _197  and  _198
REMARK   80  A    between atoms: _197  and  _200
REMARK   81  A    between atoms: _200  and  _201
REMARK   82  A    between atoms: _201  and  _202
REMARK   83  A    between atoms: _202  and  _203
REMARK   84  A    between atoms: _203  and  _204
REMARK   85  A    between atoms: _208  and  _210
REMARK   86  A    between atoms: _210  and  _211
REMARK   87  A    between atoms: _210  and  _213
REMARK   88  A    between atoms: _216  and  _218
REMARK   89  A    between atoms: _218  and  _219
REMARK   90  A    between atoms: _222  and  _224
REMARK   91  A    between atoms: _224  and  _225
REMARK   92  A    between atoms: _224  and  _227
REMARK   93  A    between atoms: _227  and  _228
REMARK   94  A    between atoms: _233  and  _235
REMARK   95  A    between atoms: _235  and  _236
REMARK   96  A    between atoms: _235  and  _238
REMARK   97  A    between atoms: _238  and  _239
REMARK   98  A    between atoms: _241  and  _243
REMARK   99  A    between atoms: _243  and  _244
REMARK  100  A    between atoms: _243  and  _246
REMARK  101  A    between atoms: _246  and  _247
REMARK  102  A    between atoms: _247  and  _248
REMARK  103  A    between atoms: _253  and  _255
REMARK  104  A    between atoms: _255  and  _256
REMARK  105  A    between atoms: _255  and  _258
REMARK  106  A    between atoms: _258  and  _259
REMARK  107  A    between atoms: _262  and  _264
REMARK  108  A    between atoms: _264  and  _265
REMARK  109  A    between atoms: _264  and  _267
REMARK  110  A    between atoms: _267  and  _268
REMARK  111  A    between atoms: _273  and  _275
REMARK  112  A    between atoms: _275  and  _276
REMARK  113  A    between atoms: _275  and  _278
REMARK  114  A    between atoms: _278  and  _279
REMARK  115  A    between atoms: _279  and  _280
REMARK  116  A    between atoms: _280  and  _281
REMARK  117  A    between atoms: _290  and  _292
REMARK  118  A    between atoms: _292  and  _293
REMARK  119  A    between atoms: _292  and  _295
REMARK  120  A    between atoms: _298  and  _300
REMARK  121  A    between atoms: _300  and  _301
REMARK  122  A    between atoms: _300  and  _303
REMARK  123  A    between atoms: _303  and  _304
REMARK  124  A    between atoms: _307  and  _309
REMARK  125  A    between atoms: _309  and  _310
REMARK  126  A    between atoms: _309  and  _312
REMARK  127  A    between atoms: _312  and  _313
REMARK  128  A    between atoms: _316  and  _318
REMARK  129  A    between atoms: _318  and  _319
REMARK  130  A    between atoms: _321  and  _323
REMARK  131  A    between atoms: _323  and  _324
REMARK  132  A    between atoms: _323  and  _326
REMARK  133  A    between atoms: _326  and  _327
REMARK  134  A    between atoms: _330  and  _332
REMARK  135  A    between atoms: _332  and  _333
REMARK  136  A    between atoms: _332  and  _335
REMARK  137  A    between atoms: _335  and  _336
REMARK  138  A    between atoms: _339  and  _341
REMARK  139  A    between atoms: _341  and  _342
REMARK  140  A    between atoms: _341  and  _344
REMARK  141  A    between atoms: _344  and  _345
REMARK  142  A    between atoms: _345  and  _346
REMARK  143  A    between atoms: _346  and  _347
REMARK  144  A    between atoms: _356  and  _358
REMARK  145  A    between atoms: _358  and  _359
REMARK  146  A    between atoms: _358  and  _361
REMARK  147  A    between atoms: _361  and  _362
REMARK  148  A    between atoms: _367  and  _368
REMARK  149  A    between atoms: _370  and  _372
REMARK  150  A    between atoms: _372  and  _373
REMARK  151  A    between atoms: _372  and  _375
REMARK  152  A    between atoms: _378  and  _380
REMARK  153  A    between atoms: _380  and  _381
REMARK  154  A    between atoms: _380  and  _383
REMARK  155  A    between atoms: _383  and  _384
REMARK  156  A    between atoms: _384  and  _385
REMARK  157  A    between atoms: _385  and  _386
REMARK  158  A    between atoms: _395  and  _397
REMARK  159  A    between atoms: _397  and  _398
REMARK  160  A    between atoms: _397  and  _400
REMARK  161  A    between atoms: _400  and  _401
REMARK  162  A    between atoms: _406  and  _407
REMARK  163  A    between atoms: _409  and  _411
REMARK  164  A    between atoms: _411  and  _412
REMARK  165  A    between atoms: _414  and  _416
REMARK  166  A    between atoms: _416  and  _417
REMARK  167  A    between atoms: _416  and  _419
REMARK  168  A    between atoms: _419  and  _420
REMARK  169  A    between atoms: _420  and  _723
REMARK  170  A    between atoms: _421  and  _423
REMARK  171  A    between atoms: _423  and  _424
REMARK  172  A    between atoms: _423  and  _426
REMARK  173  A    between atoms: _426  and  _427
REMARK  174  A    between atoms: _432  and  _434
REMARK  175  A    between atoms: _434  and  _435
REMARK  176  A    between atoms: _434  and  _437
REMARK  177  A    between atoms: _437  and  _438
REMARK  178  A    between atoms: _443  and  _444
REMARK  179  A    between atoms: _446  and  _448
REMARK  180  A    between atoms: _448  and  _449
REMARK  181  A    between atoms: _452  and  _454
REMARK  182  A    between atoms: _454  and  _455
REMARK  183  A    between atoms: _454  and  _457
REMARK  184  A    between atoms: _457  and  _458
REMARK  185  A    between atoms: _463  and  _464
REMARK  186  A    between atoms: _466  and  _468
REMARK  187  A    between atoms: _468  and  _469
REMARK  188  A    between atoms: _468  and  _471
REMARK  189  A    between atoms: _471  and  _472
REMARK  190  A    between atoms: _477  and  _478
REMARK  191  A    between atoms: _480  and  _482
REMARK  192  A    between atoms: _482  and  _483
REMARK  193  A    between atoms: _482  and  _485
REMARK  194  A    between atoms: _485  and  _486
REMARK  195  A    between atoms: _489  and  _491
REMARK  196  A    between atoms: _491  and  _492
REMARK  197  A    between atoms: _491  and  _494
REMARK  198  A    between atoms: _494  and  _495
REMARK  199  A    between atoms: _505  and  _507
REMARK  200  A    between atoms: _507  and  _508
REMARK  201  A    between atoms: _511  and  _513
REMARK  202  A    between atoms: _513  and  _514
REMARK  203  A    between atoms: _517  and  _519
REMARK  204  A    between atoms: _519  and  _520
REMARK  205  A    between atoms: _519  and  _522
REMARK  206  A    between atoms: _522  and  _523
REMARK  207  A    between atoms: _523  and  _524
REMARK  208  A    between atoms: _529  and  _531
REMARK  209  A    between atoms: _531  and  _532
REMARK  210  A    between atoms: _531  and  _534
REMARK  211  A    between atoms: _534  and  _535
REMARK  212  A    between atoms: _538  and  _540
REMARK  213  A    between atoms: _540  and  _541
REMARK  214  A    between atoms: _540  and  _543
REMARK  215  A    between atoms: _543  and  _544
REMARK  216  A    between atoms: _547  and  _549
REMARK  217  A    between atoms: _549  and  _550
REMARK  218  A    between atoms: _549  and  _552
REMARK  219  A    between atoms: _552  and  _553
REMARK  220  A    between atoms: _553  and  _554
REMARK  221  A    between atoms: _554  and  _555
REMARK  222  A    between atoms: _555  and  _556
REMARK  223  A    between atoms: _560  and  _562
REMARK  224  A    between atoms: _562  and  _563
REMARK  225  A    between atoms: _562  and  _565
REMARK  226  A    between atoms: _565  and  _566
REMARK  227  A    between atoms: _571  and  _573
REMARK  228  A    between atoms: _573  and  _574
REMARK  229  A    between atoms: _573  and  _576
REMARK  230  A    between atoms: _576  and  _577
REMARK  231  A    between atoms: _577  and  _578
REMARK  232  A    between atoms: _578  and  _579
REMARK  233  A    between atoms: _579  and  _580
REMARK  234  A    between atoms: _584  and  _586
REMARK  235  A    between atoms: _586  and  _587
REMARK  236  A    between atoms: _586  and  _589
REMARK  237  A    between atoms: _589  and  _590
REMARK  238  A    between atoms: _600  and  _602
REMARK  239  A    between atoms: _602  and  _603
REMARK  240  A    between atoms: _602  and  _605
REMARK  241  A    between atoms: _605  and  _606
REMARK  242  A    between atoms: _606  and  _607
REMARK  243  A    between atoms: _610  and  _612
REMARK  244  A    between atoms: _612  and  _613
REMARK  245  A    between atoms: _616  and  _618
REMARK  246  A    between atoms: _618  and  _619
REMARK  247  A    between atoms: _622  and  _624
REMARK  248  A    between atoms: _624  and  _625
REMARK  249  A    between atoms: _624  and  _627
REMARK  250  A    between atoms: _627  and  _628
REMARK  251  A    between atoms: _633  and  _635
REMARK  252  A    between atoms: _635  and  _636
REMARK  253  A    between atoms: _635  and  _638
REMARK  254  A    between atoms: _641  and  _643
REMARK  255  A    between atoms: _643  and  _644
REMARK  256  A    between atoms: _647  and  _649
REMARK  257  A    between atoms: _649  and  _650
REMARK  258  A    between atoms: _649  and  _652
REMARK  259  A    between atoms: _652  and  _653
REMARK  260  A    between atoms: _653  and  _654
REMARK  261  A    between atoms: _659  and  _661
REMARK  262  A    between atoms: _661  and  _662
REMARK  263  A    between atoms: _661  and  _664
REMARK  264  A    between atoms: _664  and  _665
REMARK  265  A    between atoms: _668  and  _670
REMARK  266  A    between atoms: _670  and  _671
REMARK  267  A    between atoms: _670  and  _673
REMARK  268  A    between atoms: _673  and  _674
REMARK  269  A    between atoms: _674  and  _675
REMARK  270  A    between atoms: _675  and  _676
REMARK  271  A    between atoms: _685  and  _687
REMARK  272  A    between atoms: _687  and  _688
REMARK  273  A    between atoms: _687  and  _690
REMARK  274  A    between atoms: _690  and  _691
REMARK  275  A    between atoms: _696  and  _697
REMARK  276  A    between atoms: _699  and  _701
REMARK  277  A    between atoms: _701  and  _702
REMARK  278  A    between atoms: _701  and  _704
REMARK  279  A    between atoms: _704  and  _705
REMARK  280  A    between atoms: _708  and  _710
REMARK  281  A    between atoms: _710  and  _711
REMARK  282  A    between atoms: _710  and  _713
REMARK  283  A    between atoms: _713  and  _714
REMARK  284  A    between atoms: _717  and  _719
REMARK  285  A    between atoms: _719  and  _720
REMARK  286  A    between atoms: _719  and  _722
REMARK  287  A    between atoms: _722  and  _723
REMARK  288  A    between atoms: _724  and  _726
REMARK  289  A    between atoms: _726  and  _727
REMARK  290  A    between atoms: _726  and  _729
REMARK  291  A    between atoms: _732  and  _734
REMARK  292  A    between atoms: _734  and  _735
REMARK  293  A    between atoms: _734  and  _737
REMARK  294  A    between atoms: _737  and  _738
REMARK  295  A    between atoms: _738  and  _739
REMARK  296  A    between atoms: _742  and  _744
REMARK  297  A    between atoms: _744  and  _745
REMARK  298  A    between atoms: _744  and  _747
REMARK  299  A    between atoms: _747  and  _748
REMARK  300  A    between atoms: _758  and  _760
REMARK  301  A    between atoms: _760  and  _761
REMARK  302  A    between atoms: _760  and  _763
REMARK  303  A    between atoms: _763  and  _764
REMARK  304  A    between atoms: _767  and  _769
REMARK  305  A    between atoms: _769  and  _770
REMARK  306  A    between atoms: _769  and  _772
REMARK  307  A    between atoms: _772  and  _773
REMARK  308  A    between atoms: _773  and  _774
REMARK  309  A    between atoms: _774  and  _775
REMARK  310  A    between atoms: _784  and  _786
REMARK  311  A    between atoms: _786  and  _787
REMARK  312  A    between atoms: _786  and  _789
REMARK  313  A    between atoms: _789  and  _790
REMARK  314  A    between atoms: _795  and  _796
REMARK                            x       y       z     vdW  Elec       q    Type
REMARK                         _______ _______ _______ _____ _____    ______ ____
ROOT
ATOM      1  C   CYS A   2      20.782 -13.343  41.317  0.00  0.00    +0.242 C 
ATOM      2  O   CYS A   2      19.734 -12.781  41.654  0.00  0.00    -0.273 OA
ATOM      3  N   VAL A   3      20.907 -14.659  41.131  0.00  0.00    -0.297 N 
ATOM      4  H   VAL A   3      21.831 -15.031  40.833  0.00  0.00    +0.150 HD
ENDROOT
BRANCH   1   5
ATOM      5  CA  CYS A   2      22.040 -12.518  41.069  0.00  0.00    +0.160 C 
BRANCH   5   6
ATOM      6  N   CYS A   2      23.191 -13.057  41.787  0.00  0.00    -0.296 N 
ATOM      7  C   THR A   1      23.189 -13.238  43.100  0.00  0.00    +0.241 C 
ATOM      8  O   THR A   1      22.233 -12.964  43.803  0.00  0.00    -0.274 OA
ATOM      9  H   CYS A   2      24.044 -13.308  41.248  0.00  0.00    +0.150 HD
BRANCH   7  10
ATOM     10  CA  THR A   1      24.459 -13.846  43.706  0.00  0.00    +0.172 C 
BRANCH  10  11
ATOM     11  CB  THR A   1      25.616 -12.780  43.701  0.00  0.00    +0.135 C 
ATOM     12  CG2 THR A   1      25.233 -11.517  44.458  0.00  0.00    +0.034 C 
BRANCH  11  13
ATOM     13  OG1 THR A   1      26.766 -13.340  44.337  0.00  0.00    -0.383 OA
ATOM     14  HG1 THR A   1      27.499 -12.674  44.337  0.00  0.00    +0.210 HD
ENDBRANCH  11  13
ENDBRANCH  10  11
BRANCH  10  15
ATOM     15  N   THR A   1      24.917 -15.061  43.010  0.00  0.00    -0.236 NA
ATOM     16  H   THR A   1      25.933 -15.106  42.793  0.00  0.00    +0.142 HD
ENDBRANCH  10  15
ENDBRANCH   7  10
ENDBRANCH   5   6
BRANCH   5  17
ATOM     17  CB  CYS A   2      22.351 -12.490  39.577  0.00  0.00    +0.098 C 
BRANCH  17  18
ATOM     18  SG  CYS A   2      21.145 -11.621  38.546  0.00  0.00    -0.080 S 
BRANCH  18  19
ATOM     19  SG  VAL A   3      19.635 -13.103  38.116  0.00  0.00    -0.080 S 
BRANCH  19  20
ATOM     20  CB  VAL A   3      20.230 -13.896  36.534  0.00  0.00    +0.096 C 
BRANCH  20  21
ATOM     21  CA  VAL A   3      19.707 -13.259  35.236  0.00  0.00    +0.149 C 
BRANCH  21  23
ATOM     22  C   CYS A   2      20.844 -11.208  34.642  0.00  0.00    +0.243 C 
ATOM     23  N   VAL A   3      19.860 -11.812  35.284  0.00  0.00    -0.297 N 
ATOM     24  H   VAL A   3      19.183 -11.244  35.833  0.00  0.00    +0.150 HD
ATOM     25  O   CYS A   2      21.531 -11.766  33.813  0.00  0.00    -0.273 OA
BRANCH  22  26
ATOM     26  CA  CYS A   2      21.051  -9.765  34.973  0.00  0.00    +0.176 C 
BRANCH  26  29
ATOM     27  C   THR A   1      21.914  -7.724  33.984  0.00  0.00    +0.239 C 
ATOM     28  O   THR A   1      21.126  -6.998  34.581  0.00  0.00    -0.274 OA
ATOM     29  N   CYS A   2      21.937  -9.042  34.075  0.00  0.00    -0.296 N 
ATOM     30  H   CYS A   2      22.608  -9.577  33.488  0.00  0.00    +0.150 HD
BRANCH  27  31
ATOM     31  CA  THR A   1      22.955  -7.122  33.076  0.00  0.00    +0.149 C 
BRANCH  31  32
ATOM     32  N   THR A   1      22.655  -5.767  32.717  0.00  0.00    -0.238 NA
ATOM     33  H   THR A   1      22.126  -5.157  33.373  0.00  0.00    +0.142 HD
ENDBRANCH  31  32
BRANCH  31  34
ATOM     34  CB  THR A   1      24.347  -7.211  33.730  0.00  0.00    +0.053 C 
BRANCH  34  35
ATOM     35  CG  THR A   1      24.618  -6.363  34.946  0.00  0.00    -0.020 A 
ATOM     36  CD2 THR A   1      24.122  -6.724  36.187  0.00  0.00    -0.001 A 
ATOM     37  CE2 THR A   1      24.433  -5.993  37.321  0.00  0.00    +0.036 A 
ATOM     38  CZ  THR A   1      25.236  -4.878  37.210  0.00  0.00    +0.134 A 
ATOM     39  CE1 THR A   1      25.767  -4.517  35.998  0.00  0.00    +0.036 A 
ATOM     40  CD1 THR A   1      25.457  -5.254  34.865  0.00  0.00    -0.001 A 
BRANCH  38  41
ATOM     41  OH  THR A   1      25.522  -4.149  38.340  0.00  0.00    -0.506 OA
ATOM     42  HH  THR A   1      26.499  -4.158  38.498  0.00  0.00    +0.292 HD
ENDBRANCH  38  41
ENDBRANCH  34  35
ENDBRANCH  31  34
ENDBRANCH  27  31
ENDBRANCH  26  29
ENDBRANCH  22  26
ENDBRANCH  21  23
BRANCH  21  43
ATOM     43  C   VAL A   3      18.252 -13.585  34.999  0.00  0.00    +0.228 C 
ATOM     44  O   VAL A   3      17.395 -12.848  35.436  0.00  0.00    -0.286 OA
ENDBRANCH  21  43
ENDBRANCH  20  21
ENDBRANCH  19  20
ENDBRANCH  18  19
ENDBRANCH  17  18
ENDBRANCH   5  17
ENDBRANCH   1   5
BRANCH   3  45
ATOM     45  CA  VAL A   3      19.795 -15.612  41.328  0.00  0.00    +0.149 C 
BRANCH  45  46
ATOM     46  C   VAL A   3      19.318 -15.594  42.800  0.00  0.00    +0.241 C 
ATOM     47  N   GLU A   4      20.265 -15.479  43.730  0.00  0.00    -0.297 N 
ATOM     48  H   GLU A   4      21.260 -15.389  43.440  0.00  0.00    +0.150 HD
ATOM     49  O   VAL A   3      18.101 -15.631  43.079  0.00  0.00    -0.273 OA
BRANCH  47  50
ATOM     50  CA  GLU A   4      19.924 -15.478  45.158  0.00  0.00    +0.149 C 
BRANCH  50  51
ATOM     51  C   GLU A   4      19.115 -14.233  45.550  0.00  0.00    +0.241 C 
ATOM     52  O   GLU A   4      18.119 -14.337  46.242  0.00  0.00    -0.273 OA
ATOM     53  N   TRP A   5      19.533 -13.074  45.061  0.00  0.00    -0.297 N 
ATOM     54  H   TRP A   5      20.384 -13.039  44.465  0.00  0.00    +0.150 HD
BRANCH  53  55
ATOM     55  CA  TRP A   5      18.802 -11.848  45.357  0.00  0.00    +0.153 C 
BRANCH  55  56
ATOM     56  C   TRP A   5      17.448 -11.836  44.628  0.00  0.00    +0.241 C 
ATOM     57  O   TRP A   5      16.447 -11.406  45.214  0.00  0.00    -0.273 OA
ATOM     58  N   LEU A   6      17.391 -12.348  43.389  0.00  0.00    -0.298 N 
ATOM     59  H   LEU A   6      18.257 -12.691  42.926  0.00  0.00    +0.150 HD
BRANCH  58  60
ATOM     60  CA  LEU A   6      16.097 -12.422  42.687  0.00  0.00    +0.137 C 
BRANCH  60  61
ATOM     61  C   LEU A   6      15.056 -13.223  43.484  0.00  0.00    +0.227 C 
ATOM     62  O   LEU A   6      13.926 -12.748  43.684  0.00  0.00    -0.286 OA
ENDBRANCH  60  61
BRANCH  60  63
ATOM     63  CB  LEU A   6      16.251 -13.061  41.303  0.00  0.00    +0.028 C 
BRANCH  63  64
ATOM     64  CG  LEU A   6      14.975 -13.278  40.480  0.00  0.00    +0.002 C 
ATOM     65  CD2 LEU A   6      14.195 -12.001  40.305  0.00  0.00    +0.000 C 
ATOM     66  CD1 LEU A   6      15.381 -13.738  39.095  0.00  0.00    +0.000 C 
ENDBRANCH  63  64
ENDBRANCH  60  63
ENDBRANCH  58  60
ENDBRANCH  55  56
BRANCH  55  67
ATOM     67  CB  TRP A   5      19.633 -10.621  44.979  0.00  0.00    +0.057 C 
BRANCH  67  68
ATOM     68  CG  TRP A   5      20.684 -10.352  45.990  0.00  0.00    -0.002 A 
ATOM     69  CD2 TRP A   5      20.527  -9.677  47.234  0.00  0.00    +0.013 A 
ATOM     70  CE3 TRP A   5      19.451  -9.073  47.876  0.00  0.00    +0.001 A 
ATOM     71  CZ3 TRP A   5      19.653  -8.477  49.112  0.00  0.00    +0.000 A 
ATOM     72  CH2 TRP A   5      20.911  -8.491  49.725  0.00  0.00    +0.001 A 
ATOM     73  CZ2 TRP A   5      21.987  -9.071  49.116  0.00  0.00    +0.017 A 
ATOM     74  CE2 TRP A   5      21.785  -9.663  47.867  0.00  0.00    +0.056 A 
ATOM     75  NE1 TRP A   5      22.670 -10.303  47.042  0.00  0.00    -0.352 N 
ATOM     76  HE1 TRP A   5      23.681 -10.453  47.236  0.00  0.00    +0.166 HD
ATOM     77  CD1 TRP A   5      22.001 -10.714  45.916  0.00  0.00    +0.068 A 
ENDBRANCH  67  68
ENDBRANCH  55  67
ENDBRANCH  53  55
ENDBRANCH  50  51
BRANCH  50  78
ATOM     78  CB  GLU A   4      21.185 -15.613  46.023  0.00  0.00    +0.041 C 
BRANCH  78  79
ATOM     79  CG  GLU A   4      21.783 -17.012  45.949  0.00  0.00    +0.116 C 
BRANCH  79  80
ATOM     80  CD  GLU A   4      23.264 -17.056  46.321  0.00  0.00    +0.365 C 
ATOM     81  OE2 GLU A   4      23.850 -15.986  46.620  0.00  0.00    -0.246 OA
ATOM     82  OE1 GLU A   4      23.851 -18.166  46.295  0.00  0.00    -0.246 OA
ENDBRANCH  79  80
ENDBRANCH  78  79
ENDBRANCH  50  78
ENDBRANCH  47  50
ENDBRANCH  45  46
BRANCH  45  83
ATOM     83  CB  VAL A   3      20.190 -17.039  40.890  0.00  0.00    +0.027 C 
ATOM     84  CG2 VAL A   3      19.049 -18.028  41.099  0.00  0.00    +0.002 C 
ATOM     85  CG1 VAL A   3      20.610 -17.057  39.431  0.00  0.00    +0.002 C 
ENDBRANCH  45  83
ENDBRANCH   3  45
TORSDOF 36
REMARK  Name = ../refined-set-2016/3qfd/3qfd_pocket.pdb
REMARK  314 active torsions:
REMARK  status: ('A' for Active; 'I' for Inactive)
REMARK    1  A    between atoms: _1  and  _3
REMARK    2  A    between atoms: _3  and  _4
REMARK    3  A    between atoms: _3  and  _6
REMARK    4  A    between atoms: _6  and  _7
REMARK    5  A    between atoms: _7  and  _8
REMARK    6  A    between atoms: _10  and  _12
REMARK    7  A    between atoms: _12  and  _13
REMARK    8  A    between atoms: _12  and  _15
REMARK    9  A    between atoms: _15  and  _16
REMARK   10  A    between atoms: _16  and  _17
REMARK   11  A    between atoms: _17  and  _18
REMARK   12  A    between atoms: _27  and  _29
REMARK   13  A    between atoms: _29  and  _30
REMARK   14  A    between atoms: _29  and  _32
REMARK   15  A    between atoms: _32  and  _33
REMARK   16  A    between atoms: _38  and  _39
REMARK   17  A    between atoms: _41  and  _43
REMARK   18  A    between atoms: _43  and  _44
REMARK   19  A    between atoms: _43  and  _46
REMARK   20  A    between atoms: _46  and  _47
REMARK   21  A    between atoms: _53  and  _55
REMARK   22  A    between atoms: _55  and  _56
REMARK   23  A    between atoms: _55  and  _58
REMARK   24  A    between atoms: _58  and  _59
REMARK   25  A    between atoms: _65  and  _67
REMARK   26  A    between atoms: _67  and  _68
REMARK   27  A    between atoms: _71  and  _73
REMARK   28  A    between atoms: _73  and  _74
REMARK   29  A    between atoms: _73  and  _76
REMARK   30  A    between atoms: _79  and  _81
REMARK   31  A    between atoms: _81  and  _82
REMARK   32  A    between atoms: _84  and  _86
REMARK   33  A    between atoms: _86  and  _87
REMARK   34  A    between atoms: _86  and  _89
REMARK   35  A    between atoms: _92  and  _94
REMARK   36  A    between atoms: _94  and  _95
REMARK   37  A    between atoms: _94  and  _97
REMARK   38  A    between atoms: _97  and  _98
REMARK   39  A    between atoms: _104  and  _106
REMARK   40  A    between atoms: _106  and  _107
REMARK   41  A    between atoms: _106  and  _109
REMARK   42  A    between atoms: _112  and  _114
REMARK   43  A    between atoms: _114  and  _115
REMARK   44  A    between atoms: _114  and  _117
REMARK   45  A    between atoms: _117  and  _118
REMARK   46  A    between atoms: _118  and  _119
REMARK   47  A    between atoms: _121  and  _123
REMARK   48  A    between atoms: _123  and  _124
REMARK   49  A    between atoms: _123  and  _126
REMARK   50  A    between atoms: _126  and  _127
REMARK   51  A    between atoms: _130  and  _132
REMARK   52  A    between atoms: _132  and  _133
REMARK   53  A    between atoms: _132  and  _135
REMARK   54  A    between atoms: _135  and  _136
REMARK   55  A    between atoms: _136  and  _137
REMARK   56  A    between atoms: _140  and  _142
REMARK   57  A    between atoms: _142  and  _143
REMARK   58  A    between atoms: _142  and  _145
REMARK   59  A    between atoms: _145  and  _146
REMARK   60  A    between atoms: _151  and  _152
REMARK   61  A    between atoms: _154  and  _156
REMARK   62  A    between atoms: _156  and  _157
REMARK   63  A    between atoms: _159  and  _161
REMARK   64  A    between atoms: _161  and  _162
REMARK   65  A    between atoms: _161  and  _164
REMARK   66  A    between atoms: _164  and  _165
REMARK   67  A    between atoms: _165  and  _166
REMARK   68  A    between atoms: _169  and  _171
REMARK   69  A    between atoms: _171  and  _172
REMARK   70  A    between atoms: _171  and  _174
REMARK   71  A    between atoms: _174  and  _175
REMARK   72  A    between atoms: _178  and  _180
REMARK   73  A    between atoms: _180  and  _181
REMARK   74  A    between atoms: _180  and  _183
REMARK   75  A    between atoms: _183  and  _184
REMARK   76  A    between atoms: _184  and  _185
REMARK   77  A    between atoms: _185  and  _186
REMARK   78  A    between atoms: _195  and  _197
REMARK   79  A    between atoms: _197  and  _198
REMARK   80  A    between atoms: _197  and  _200
REMARK   81  A    between atoms: _200  and  _201
REMARK   82  A    between atoms: _201  and  _202
REMARK   83  A    between atoms: _202  and  _203
REMARK   84  A    between atoms: _203  and  _204
REMARK   85  A    between atoms: _208  and  _210
REMARK   86  A    between atoms: _210  and  _211
REMARK   87  A    between atoms: _210  and  _213
REMARK   88  A    between atoms: _216  and  _218
REMARK   89  A    between atoms: _218  and  _219
REMARK   90  A    between atoms: _222  and  _224
REMARK   91  A    between atoms: _224  and  _225
REMARK   92  A    between atoms: _224  and  _227
REMARK   93  A    between atoms: _227  and  _228
REMARK   94  A    between atoms: _233  and  _235
REMARK   95  A    between atoms: _235  and  _236
REMARK   96  A    between atoms: _235  and  _238
REMARK   97  A    between atoms: _238  and  _239
REMARK   98  A    between atoms: _241  and  _243
REMARK   99  A    between atoms: _243  and  _244
REMARK  100  A    between atoms: _243  and  _246
REMARK  101  A    between atoms: _246  and  _247
REMARK  102  A    between atoms: _247  and  _248
REMARK  103  A    between atoms: _253  and  _255
REMARK  104  A    between atoms: _255  and  _256
REMARK  105  A    between atoms: _255  and  _258
REMARK  106  A    between atoms: _258  and  _259
REMARK  107  A    between atoms: _262  and  _264
REMARK  108  A    between atoms: _264  and  _265
REMARK  109  A    between atoms: _264  and  _267
REMARK  110  A    between atoms: _267  and  _268
REMARK  111  A    between atoms: _273  and  _275
REMARK  112  A    between atoms: _275  and  _276
REMARK  113  A    between atoms: _275  and  _278
REMARK  114  A    between atoms: _278  and  _279
REMARK  115  A    between atoms: _279  and  _280
REMARK  116  A    between atoms: _280  and  _281
REMARK  117  A    between atoms: _290  and  _292
REMARK  118  A    between atoms: _292  and  _293
REMARK  119  A    between atoms: _292  and  _295
REMARK  120  A    between atoms: _298  and  _300
REMARK  121  A    between atoms: _300  and  _301
REMARK  122  A    between atoms: _300  and  _303
REMARK  123  A    between atoms: _303  and  _304
REMARK  124  A    between atoms: _307  and  _309
REMARK  125  A    between atoms: _309  and  _310
REMARK  126  A    between atoms: _309  and  _312
REMARK  127  A    between atoms: _312  and  _313
REMARK  128  A    between atoms: _316  and  _318
REMARK  129  A    between atoms: _318  and  _319
REMARK  130  A    between atoms: _321  and  _323
REMARK  131  A    between atoms: _323  and  _324
REMARK  132  A    between atoms: _323  and  _326
REMARK  133  A    between atoms: _326  and  _327
REMARK  134  A    between atoms: _330  and  _332
REMARK  135  A    between atoms: _332  and  _333
REMARK  136  A    between atoms: _332  and  _335
REMARK  137  A    between atoms: _335  and  _336
REMARK  138  A    between atoms: _339  and  _341
REMARK  139  A    between atoms: _341  and  _342
REMARK  140  A    between atoms: _341  and  _344
REMARK  141  A    between atoms: _344  and  _345
REMARK  142  A    between atoms: _345  and  _346
REMARK  143  A    between atoms: _346  and  _347
REMARK  144  A    between atoms: _356  and  _358
REMARK  145  A    between atoms: _358  and  _359
REMARK  146  A    between atoms: _358  and  _361
REMARK  147  A    between atoms: _361  and  _362
REMARK  148  A    between atoms: _367  and  _368
REMARK  149  A    between atoms: _370  and  _372
REMARK  150  A    between atoms: _372  and  _373
REMARK  151  A    between atoms: _372  and  _375
REMARK  152  A    between atoms: _378  and  _380
REMARK  153  A    between atoms: _380  and  _381
REMARK  154  A    between atoms: _380  and  _383
REMARK  155  A    between atoms: _383  and  _384
REMARK  156  A    between atoms: _384  and  _385
REMARK  157  A    between atoms: _385  and  _386
REMARK  158  A    between atoms: _395  and  _397
REMARK  159  A    between atoms: _397  and  _398
REMARK  160  A    between atoms: _397  and  _400
REMARK  161  A    between atoms: _400  and  _401
REMARK  162  A    between atoms: _406  and  _407
REMARK  163  A    between atoms: _409  and  _411
REMARK  164  A    between atoms: _411  and  _412
REMARK  165  A    between atoms: _414  and  _416
REMARK  166  A    between atoms: _416  and  _417
REMARK  167  A    between atoms: _416  and  _419
REMARK  168  A    between atoms: _419  and  _420
REMARK  169  A    between atoms: _420  and  _723
REMARK  170  A    between atoms: _421  and  _423
REMARK  171  A    between atoms: _423  and  _424
REMARK  172  A    between atoms: _423  and  _426
REMARK  173  A    between atoms: _426  and  _427
REMARK  174  A    between atoms: _432  and  _434
REMARK  175  A    between atoms: _434  and  _435
REMARK  176  A    between atoms: _434  and  _437
REMARK  177  A    between atoms: _437  and  _438
REMARK  178  A    between atoms: _443  and  _444
REMARK  179  A    between atoms: _446  and  _448
REMARK  180  A    between atoms: _448  and  _449
REMARK  181  A    between atoms: _452  and  _454
REMARK  182  A    between atoms: _454  and  _455
REMARK  183  A    between atoms: _454  and  _457
REMARK  184  A    between atoms: _457  and  _458
REMARK  185  A    between atoms: _463  and  _464
REMARK  186  A    between atoms: _466  and  _468
REMARK  187  A    between atoms: _468  and  _469
REMARK  188  A    between atoms: _468  and  _471
REMARK  189  A    between atoms: _471  and  _472
REMARK  190  A    between atoms: _477  and  _478
REMARK  191  A    between atoms: _480  and  _482
REMARK  192  A    between atoms: _482  and  _483
REMARK  193  A    between atoms: _482  and  _485
REMARK  194  A    between atoms: _485  and  _486
REMARK  195  A    between atoms: _489  and  _491
REMARK  196  A    between atoms: _491  and  _492
REMARK  197  A    between atoms: _491  and  _494
REMARK  198  A    between atoms: _494  and  _495
REMARK  199  A    between atoms: _505  and  _507
REMARK  200  A    between atoms: _507  and  _508
REMARK  201  A    between atoms: _511  and  _513
REMARK  202  A    between atoms: _513  and  _514
REMARK  203  A    between atoms: _517  and  _519
REMARK  204  A    between atoms: _519  and  _520
REMARK  205  A    between atoms: _519  and  _522
REMARK  206  A    between atoms: _522  and  _523
REMARK  207  A    between atoms: _523  and  _524
REMARK  208  A    between atoms: _529  and  _531
REMARK  209  A    between atoms: _531  and  _532
REMARK  210  A    between atoms: _531  and  _534
REMARK  211  A    between atoms: _534  and  _535
REMARK  212  A    between atoms: _538  and  _540
REMARK  213  A    between atoms: _540  and  _541
REMARK  214  A    between atoms: _540  and  _543
REMARK  215  A    between atoms: _543  and  _544
REMARK  216  A    between atoms: _547  and  _549
REMARK  217  A    between atoms: _549  and  _550
REMARK  218  A    between atoms: _549  and  _552
REMARK  219  A    between atoms: _552  and  _553
REMARK  220  A    between atoms: _553  and  _554
REMARK  221  A    between atoms: _554  and  _555
REMARK  222  A    between atoms: _555  and  _556
REMARK  223  A    between atoms: _560  and  _562
REMARK  224  A    between atoms: _562  and  _563
REMARK  225  A    between atoms: _562  and  _565
REMARK  226  A    between atoms: _565  and  _566
REMARK  227  A    between atoms: _571  and  _573
REMARK  228  A    between atoms: _573  and  _574
REMARK  229  A    between atoms: _573  and  _576
REMARK  230  A    between atoms: _576  and  _577
REMARK  231  A    between atoms: _577  and  _578
REMARK  232  A    between atoms: _578  and  _579
REMARK  233  A    between atoms: _579  and  _580
REMARK  234  A    between atoms: _584  and  _586
REMARK  235  A    between atoms: _586  and  _587
REMARK  236  A    between atoms: _586  and  _589
REMARK  237  A    between atoms: _589  and  _590
REMARK  238  A    between atoms: _600  and  _602
REMARK  239  A    between atoms: _602  and  _603
REMARK  240  A    between atoms: _602  and  _605
REMARK  241  A    between atoms: _605  and  _606
REMARK  242  A    between atoms: _606  and  _607
REMARK  243  A    between atoms: _610  and  _612
REMARK  244  A    between atoms: _612  and  _613
REMARK  245  A    between atoms: _616  and  _618
REMARK  246  A    between atoms: _618  and  _619
REMARK  247  A    between atoms: _622  and  _624
REMARK  248  A    between atoms: _624  and  _625
REMARK  249  A    between atoms: _624  and  _627
REMARK  250  A    between atoms: _627  and  _628
REMARK  251  A    between atoms: _633  and  _635
REMARK  252  A    between atoms: _635  and  _636
REMARK  253  A    between atoms: _635  and  _638
REMARK  254  A    between atoms: _641  and  _643
REMARK  255  A    between atoms: _643  and  _644
REMARK  256  A    between atoms: _647  and  _649
REMARK  257  A    between atoms: _649  and  _650
REMARK  258  A    between atoms: _649  and  _652
REMARK  259  A    between atoms: _652  and  _653
REMARK  260  A    between atoms: _653  and  _654
REMARK  261  A    between atoms: _659  and  _661
REMARK  262  A    between atoms: _661  and  _662
REMARK  263  A    between atoms: _661  and  _664
REMARK  264  A    between atoms: _664  and  _665
REMARK  265  A    between atoms: _668  and  _670
REMARK  266  A    between atoms: _670  and  _671
REMARK  267  A    between atoms: _670  and  _673
REMARK  268  A    between atoms: _673  and  _674
REMARK  269  A    between atoms: _674  and  _675
REMARK  270  A    between atoms: _675  and  _676
REMARK  271  A    between atoms: _685  and  _687
REMARK  272  A    between atoms: _687  and  _688
REMARK  273  A    between atoms: _687  and  _690
REMARK  274  A    between atoms: _690  and  _691
REMARK  275  A    between atoms: _696  and  _697
REMARK  276  A    between atoms: _699  and  _701
REMARK  277  A    between atoms: _701  and  _702
REMARK  278  A    between atoms: _701  and  _704
REMARK  279  A    between atoms: _704  and  _705
REMARK  280  A    between atoms: _708  and  _710
REMARK  281  A    between atoms: _710  and  _711
REMARK  282  A    between atoms: _710  and  _713
REMARK  283  A    between atoms: _713  and  _714
REMARK  284  A    between atoms: _717  and  _719
REMARK  285  A    between atoms: _719  and  _720
REMARK  286  A    between atoms: _719  and  _722
REMARK  287  A    between atoms: _722  and  _723
REMARK  288  A    between atoms: _724  and  _726
REMARK  289  A    between atoms: _726  and  _727
REMARK  290  A    between atoms: _726  and  _729
REMARK  291  A    between atoms: _732  and  _734
REMARK  292  A    between atoms: _734  and  _735
REMARK  293  A    between atoms: _734  and  _737
REMARK  294  A    between atoms: _737  and  _738
REMARK  295  A    between atoms: _738  and  _739
REMARK  296  A    between atoms: _742  and  _744
REMARK  297  A    between atoms: _744  and  _745
REMARK  298  A    between atoms: _744  and  _747
REMARK  299  A    between atoms: _747  and  _748
REMARK  300  A    between atoms: _758  and  _760
REMARK  301  A    between atoms: _760  and  _761
REMARK  302  A    between atoms: _760  and  _763
REMARK  303  A    between atoms: _763  and  _764
REMARK  304  A    between atoms: _767  and  _769
REMARK  305  A    between atoms: _769  and  _770
REMARK  306  A    between atoms: _769  and  _772
REMARK  307  A    between atoms: _772  and  _773
REMARK  308  A    between atoms: _773  and  _774
REMARK  309  A    between atoms: _774  and  _775
REMARK  310  A    between atoms: _784  and  _786
REMARK  311  A    between atoms: _786  and  _787
REMARK  312  A    between atoms: _786  and  _789
REMARK  313  A    between atoms: _789  and  _790
REMARK  314  A    between atoms: _795  and  _796
REMARK                            x       y       z     vdW  Elec       q    Type
REMARK                         _______ _______ _______ _____ _____    ______ ____
ROOT
ATOM      1  CB  HIS A   1      27.169  -8.963  31.410  0.00  0.00    +0.072 C 
ENDROOT
BRANCH   1   2
ATOM      2  CG  HIS A   1      27.824  -7.742  32.018  0.00  0.00    +0.082 A 
ATOM      3  ND1 HIS A   1      27.933  -7.554  33.383  0.00  0.00    -0.227 NA
ATOM      4  CE1 HIS A   1      28.529  -6.397  33.622  0.00  0.00    +0.199 A 
ATOM      5  NE2 HIS A   1      28.844  -5.843  32.463  0.00  0.00    -0.221 NA
ATOM      6  CD2 HIS A   1      28.405  -6.659  31.443  0.00  0.00    +0.115 A 
ENDBRANCH   1   2
BRANCH   1   7
ATOM      7  CA  HIS A   1      25.910  -8.630  30.568  0.00  0.00    +0.139 C 
BRANCH   7   8
ATOM      8  N   HIS A   1      25.189  -9.818  30.148  0.00  0.00    -0.239 NA
ATOM      9  H   HIS A   1      25.377 -10.228  29.211  0.00  0.00    +0.142 HD
ENDBRANCH   7   8
BRANCH   7  10
ATOM     10  C   HIS A   1      26.344  -8.005  29.263  0.00  0.00    +0.224 C 
ATOM     11  O   HIS A   1      27.215  -8.536  28.596  0.00  0.00    -0.287 OA
ENDBRANCH   7  10
ENDBRANCH   1   7
TORSDOF 4
REMARK  Name = ../refined-set-2016/3qfd/3qfd_pocket.pdb
REMARK  314 active torsions:
REMARK  status: ('A' for Active; 'I' for Inactive)
REMARK    1  A    between atoms: _1  and  _3
REMARK    2  A    between atoms: _3  and  _4
REMARK    3  A    between atoms: _3  and  _6
REMARK    4  A    between atoms: _6  and  _7
REMARK    5  A    between atoms: _7  and  _8
REMARK    6  A    between atoms: _10  and  _12
REMARK    7  A    between atoms: _12  and  _13
REMARK    8  A    between atoms: _12  and  _15
REMARK    9  A    between atoms: _15  and  _16
REMARK   10  A    between atoms: _16  and  _17
REMARK   11  A    between atoms: _17  and  _18
REMARK   12  A    between atoms: _27  and  _29
REMARK   13  A    between atoms: _29  and  _30
REMARK   14  A    between atoms: _29  and  _32
REMARK   15  A    between atoms: _32  and  _33
REMARK   16  A    between atoms: _38  and  _39
REMARK   17  A    between atoms: _41  and  _43
REMARK   18  A    between atoms: _43  and  _44
REMARK   19  A    between atoms: _43  and  _46
REMARK   20  A    between atoms: _46  and  _47
REMARK   21  A    between atoms: _53  and  _55
REMARK   22  A    between atoms: _55  and  _56
REMARK   23  A    between atoms: _55  and  _58
REMARK   24  A    between atoms: _58  and  _59
REMARK   25  A    between atoms: _65  and  _67
REMARK   26  A    between atoms: _67  and  _68
REMARK   27  A    between atoms: _71  and  _73
REMARK   28  A    between atoms: _73  and  _74
REMARK   29  A    between atoms: _73  and  _76
REMARK   30  A    between atoms: _79  and  _81
REMARK   31  A    between atoms: _81  and  _82
REMARK   32  A    between atoms: _84  and  _86
REMARK   33  A    between atoms: _86  and  _87
REMARK   34  A    between atoms: _86  and  _89
REMARK   35  A    between atoms: _92  and  _94
REMARK   36  A    between atoms: _94  and  _95
REMARK   37  A    between atoms: _94  and  _97
REMARK   38  A    between atoms: _97  and  _98
REMARK   39  A    between atoms: _104  and  _106
REMARK   40  A    between atoms: _106  and  _107
REMARK   41  A    between atoms: _106  and  _109
REMARK   42  A    between atoms: _112  and  _114
REMARK   43  A    between atoms: _114  and  _115
REMARK   44  A    between atoms: _114  and  _117
REMARK   45  A    between atoms: _117  and  _118
REMARK   46  A    between atoms: _118  and  _119
REMARK   47  A    between atoms: _121  and  _123
REMARK   48  A    between atoms: _123  and  _124
REMARK   49  A    between atoms: _123  and  _126
REMARK   50  A    between atoms: _126  and  _127
REMARK   51  A    between atoms: _130  and  _132
REMARK   52  A    between atoms: _132  and  _133
REMARK   53  A    between atoms: _132  and  _135
REMARK   54  A    between atoms: _135  and  _136
REMARK   55  A    between atoms: _136  and  _137
REMARK   56  A    between atoms: _140  and  _142
REMARK   57  A    between atoms: _142  and  _143
REMARK   58  A    between atoms: _142  and  _145
REMARK   59  A    between atoms: _145  and  _146
REMARK   60  A    between atoms: _151  and  _152
REMARK   61  A    between atoms: _154  and  _156
REMARK   62  A    between atoms: _156  and  _157
REMARK   63  A    between atoms: _159  and  _161
REMARK   64  A    between atoms: _161  and  _162
REMARK   65  A    between atoms: _161  and  _164
REMARK   66  A    between atoms: _164  and  _165
REMARK   67  A    between atoms: _165  and  _166
REMARK   68  A    between atoms: _169  and  _171
REMARK   69  A    between atoms: _171  and  _172
REMARK   70  A    between atoms: _171  and  _174
REMARK   71  A    between atoms: _174  and  _175
REMARK   72  A    between atoms: _178  and  _180
REMARK   73  A    between atoms: _180  and  _181
REMARK   74  A    between atoms: _180  and  _183
REMARK   75  A    between atoms: _183  and  _184
REMARK   76  A    between atoms: _184  and  _185
REMARK   77  A    between atoms: _185  and  _186
REMARK   78  A    between atoms: _195  and  _197
REMARK   79  A    between atoms: _197  and  _198
REMARK   80  A    between atoms: _197  and  _200
REMARK   81  A    between atoms: _200  and  _201
REMARK   82  A    between atoms: _201  and  _202
REMARK   83  A    between atoms: _202  and  _203
REMARK   84  A    between atoms: _203  and  _204
REMARK   85  A    between atoms: _208  and  _210
REMARK   86  A    between atoms: _210  and  _211
REMARK   87  A    between atoms: _210  and  _213
REMARK   88  A    between atoms: _216  and  _218
REMARK   89  A    between atoms: _218  and  _219
REMARK   90  A    between atoms: _222  and  _224
REMARK   91  A    between atoms: _224  and  _225
REMARK   92  A    between atoms: _224  and  _227
REMARK   93  A    between atoms: _227  and  _228
REMARK   94  A    between atoms: _233  and  _235
REMARK   95  A    between atoms: _235  and  _236
REMARK   96  A    between atoms: _235  and  _238
REMARK   97  A    between atoms: _238  and  _239
REMARK   98  A    between atoms: _241  and  _243
REMARK   99  A    between atoms: _243  and  _244
REMARK  100  A    between atoms: _243  and  _246
REMARK  101  A    between atoms: _246  and  _247
REMARK  102  A    between atoms: _247  and  _248
REMARK  103  A    between atoms: _253  and  _255
REMARK  104  A    between atoms: _255  and  _256
REMARK  105  A    between atoms: _255  and  _258
REMARK  106  A    between atoms: _258  and  _259
REMARK  107  A    between atoms: _262  and  _264
REMARK  108  A    between atoms: _264  and  _265
REMARK  109  A    between atoms: _264  and  _267
REMARK  110  A    between atoms: _267  and  _268
REMARK  111  A    between atoms: _273  and  _275
REMARK  112  A    between atoms: _275  and  _276
REMARK  113  A    between atoms: _275  and  _278
REMARK  114  A    between atoms: _278  and  _279
REMARK  115  A    between atoms: _279  and  _280
REMARK  116  A    between atoms: _280  and  _281
REMARK  117  A    between atoms: _290  and  _292
REMARK  118  A    between atoms: _292  and  _293
REMARK  119  A    between atoms: _292  and  _295
REMARK  120  A    between atoms: _298  and  _300
REMARK  121  A    between atoms: _300  and  _301
REMARK  122  A    between atoms: _300  and  _303
REMARK  123  A    between atoms: _303  and  _304
REMARK  124  A    between atoms: _307  and  _309
REMARK  125  A    between atoms: _309  and  _310
REMARK  126  A    between atoms: _309  and  _312
REMARK  127  A    between atoms: _312  and  _313
REMARK  128  A    between atoms: _316  and  _318
REMARK  129  A    between atoms: _318  and  _319
REMARK  130  A    between atoms: _321  and  _323
REMARK  131  A    between atoms: _323  and  _324
REMARK  132  A    between atoms: _323  and  _326
REMARK  133  A    between atoms: _326  and  _327
REMARK  134  A    between atoms: _330  and  _332
REMARK  135  A    between atoms: _332  and  _333
REMARK  136  A    between atoms: _332  and  _335
REMARK  137  A    between atoms: _335  and  _336
REMARK  138  A    between atoms: _339  and  _341
REMARK  139  A    between atoms: _341  and  _342
REMARK  140  A    between atoms: _341  and  _344
REMARK  141  A    between atoms: _344  and  _345
REMARK  142  A    between atoms: _345  and  _346
REMARK  143  A    between atoms: _346  and  _347
REMARK  144  A    between atoms: _356  and  _358
REMARK  145  A    between atoms: _358  and  _359
REMARK  146  A    between atoms: _358  and  _361
REMARK  147  A    between atoms: _361  and  _362
REMARK  148  A    between atoms: _367  and  _368
REMARK  149  A    between atoms: _370  and  _372
REMARK  150  A    between atoms: _372  and  _373
REMARK  151  A    between atoms: _372  and  _375
REMARK  152  A    between atoms: _378  and  _380
REMARK  153  A    between atoms: _380  and  _381
REMARK  154  A    between atoms: _380  and  _383
REMARK  155  A    between atoms: _383  and  _384
REMARK  156  A    between atoms: _384  and  _385
REMARK  157  A    between atoms: _385  and  _386
REMARK  158  A    between atoms: _395  and  _397
REMARK  159  A    between atoms: _397  and  _398
REMARK  160  A    between atoms: _397  and  _400
REMARK  161  A    between atoms: _400  and  _401
REMARK  162  A    between atoms: _406  and  _407
REMARK  163  A    between atoms: _409  and  _411
REMARK  164  A    between atoms: _411  and  _412
REMARK  165  A    between atoms: _414  and  _416
REMARK  166  A    between atoms: _416  and  _417
REMARK  167  A    between atoms: _416  and  _419
REMARK  168  A    between atoms: _419  and  _420
REMARK  169  A    between atoms: _420  and  _723
REMARK  170  A    between atoms: _421  and  _423
REMARK  171  A    between atoms: _423  and  _424
REMARK  172  A    between atoms: _423  and  _426
REMARK  173  A    between atoms: _426  and  _427
REMARK  174  A    between atoms: _432  and  _434
REMARK  175  A    between atoms: _434  and  _435
REMARK  176  A    between atoms: _434  and  _437
REMARK  177  A    between atoms: _437  and  _438
REMARK  178  A    between atoms: _443  and  _444
REMARK  179  A    between atoms: _446  and  _448
REMARK  180  A    between atoms: _448  and  _449
REMARK  181  A    between atoms: _452  and  _454
REMARK  182  A    between atoms: _454  and  _455
REMARK  183  A    between atoms: _454  and  _457
REMARK  184  A    between atoms: _457  and  _458
REMARK  185  A    between atoms: _463  and  _464
REMARK  186  A    between atoms: _466  and  _468
REMARK  187  A    between atoms: _468  and  _469
REMARK  188  A    between atoms: _468  and  _471
REMARK  189  A    between atoms: _471  and  _472
REMARK  190  A    between atoms: _477  and  _478
REMARK  191  A    between atoms: _480  and  _482
REMARK  192  A    between atoms: _482  and  _483
REMARK  193  A    between atoms: _482  and  _485
REMARK  194  A    between atoms: _485  and  _486
REMARK  195  A    between atoms: _489  and  _491
REMARK  196  A    between atoms: _491  and  _492
REMARK  197  A    between atoms: _491  and  _494
REMARK  198  A    between atoms: _494  and  _495
REMARK  199  A    between atoms: _505  and  _507
REMARK  200  A    between atoms: _507  and  _508
REMARK  201  A    between atoms: _511  and  _513
REMARK  202  A    between atoms: _513  and  _514
REMARK  203  A    between atoms: _517  and  _519
REMARK  204  A    between atoms: _519  and  _520
REMARK  205  A    between atoms: _519  and  _522
REMARK  206  A    between atoms: _522  and  _523
REMARK  207  A    between atoms: _523  and  _524
REMARK  208  A    between atoms: _529  and  _531
REMARK  209  A    between atoms: _531  and  _532
REMARK  210  A    between atoms: _531  and  _534
REMARK  211  A    between atoms: _534  and  _535
REMARK  212  A    between atoms: _538  and  _540
REMARK  213  A    between atoms: _540  and  _541
REMARK  214  A    between atoms: _540  and  _543
REMARK  215  A    between atoms: _543  and  _544
REMARK  216  A    between atoms: _547  and  _549
REMARK  217  A    between atoms: _549  and  _550
REMARK  218  A    between atoms: _549  and  _552
REMARK  219  A    between atoms: _552  and  _553
REMARK  220  A    between atoms: _553  and  _554
REMARK  221  A    between atoms: _554  and  _555
REMARK  222  A    between atoms: _555  and  _556
REMARK  223  A    between atoms: _560  and  _562
REMARK  224  A    between atoms: _562  and  _563
REMARK  225  A    between atoms: _562  and  _565
REMARK  226  A    between atoms: _565  and  _566
REMARK  227  A    between atoms: _571  and  _573
REMARK  228  A    between atoms: _573  and  _574
REMARK  229  A    between atoms: _573  and  _576
REMARK  230  A    between atoms: _576  and  _577
REMARK  231  A    between atoms: _577  and  _578
REMARK  232  A    between atoms: _578  and  _579
REMARK  233  A    between atoms: _579  and  _580
REMARK  234  A    between atoms: _584  and  _586
REMARK  235  A    between atoms: _586  and  _587
REMARK  236  A    between atoms: _586  and  _589
REMARK  237  A    between atoms: _589  and  _590
REMARK  238  A    between atoms: _600  and  _602
REMARK  239  A    between atoms: _602  and  _603
REMARK  240  A    between atoms: _602  and  _605
REMARK  241  A    between atoms: _605  and  _606
REMARK  242  A    between atoms: _606  and  _607
REMARK  243  A    between atoms: _610  and  _612
REMARK  244  A    between atoms: _612  and  _613
REMARK  245  A    between atoms: _616  and  _618
REMARK  246  A    between atoms: _618  and  _619
REMARK  247  A    between atoms: _622  and  _624
REMARK  248  A    between atoms: _624  and  _625
REMARK  249  A    between atoms: _624  and  _627
REMARK  250  A    between atoms: _627  and  _628
REMARK  251  A    between atoms: _633  and  _635
REMARK  252  A    between atoms: _635  and  _636
REMARK  253  A    between atoms: _635  and  _638
REMARK  254  A    between atoms: _641  and  _643
REMARK  255  A    between atoms: _643  and  _644
REMARK  256  A    between atoms: _647  and  _649
REMARK  257  A    between atoms: _649  and  _650
REMARK  258  A    between atoms: _649  and  _652
REMARK  259  A    between atoms: _652  and  _653
REMARK  260  A    between atoms: _653  and  _654
REMARK  261  A    between atoms: _659  and  _661
REMARK  262  A    between atoms: _661  and  _662
REMARK  263  A    between atoms: _661  and  _664
REMARK  264  A    between atoms: _664  and  _665
REMARK  265  A    between atoms: _668  and  _670
REMARK  266  A    between atoms: _670  and  _671
REMARK  267  A    between atoms: _670  and  _673
REMARK  268  A    between atoms: _673  and  _674
REMARK  269  A    between atoms: _674  and  _675
REMARK  270  A    between atoms: _675  and  _676
REMARK  271  A    between atoms: _685  and  _687
REMARK  272  A    between atoms: _687  and  _688
REMARK  273  A    between atoms: _687  and  _690
REMARK  274  A    between atoms: _690  and  _691
REMARK  275  A    between atoms: _696  and  _697
REMARK  276  A    between atoms: _699  and  _701
REMARK  277  A    between atoms: _701  and  _702
REMARK  278  A    between atoms: _701  and  _704
REMARK  279  A    between atoms: _704  and  _705
REMARK  280  A    between atoms: _708  and  _710
REMARK  281  A    between atoms: _710  and  _711
REMARK  282  A    between atoms: _710  and  _713
REMARK  283  A    between atoms: _713  and  _714
REMARK  284  A    between atoms: _717  and  _719
REMARK  285  A    between atoms: _719  and  _720
REMARK  286  A    between atoms: _719  and  _722
REMARK  287  A    between atoms: _722  and  _723
REMARK  288  A    between atoms: _724  and  _726
REMARK  289  A    between atoms: _726  and  _727
REMARK  290  A    between atoms: _726  and  _729
REMARK  291  A    between atoms: _732  and  _734
REMARK  292  A    between atoms: _734  and  _735
REMARK  293  A    between atoms: _734  and  _737
REMARK  294  A    between atoms: _737  and  _738
REMARK  295  A    between atoms: _738  and  _739
REMARK  296  A    between atoms: _742  and  _744
REMARK  297  A    between atoms: _744  and  _745
REMARK  298  A    between atoms: _744  and  _747
REMARK  299  A    between atoms: _747  and  _748
REMARK  300  A    between atoms: _758  and  _760
REMARK  301  A    between atoms: _760  and  _761
REMARK  302  A    between atoms: _760  and  _763
REMARK  303  A    between atoms: _763  and  _764
REMARK  304  A    between atoms: _767  and  _769
REMARK  305  A    between atoms: _769  and  _770
REMARK  306  A    between atoms: _769  and  _772
REMARK  307  A    between atoms: _772  and  _773
REMARK  308  A    between atoms: _773  and  _774
REMARK  309  A    between atoms: _774  and  _775
REMARK  310  A    between atoms: _784  and  _786
REMARK  311  A    between atoms: _786  and  _787
REMARK  312  A    between atoms: _786  and  _789
REMARK  313  A    between atoms: _789  and  _790
REMARK  314  A    between atoms: _795  and  _796
REMARK                            x       y       z     vdW  Elec       q    Type
REMARK                         _______ _______ _______ _____ _____    ______ ____
ROOT
ATOM      1  CA  ALA A   2      26.413  -0.332  24.054  0.00  0.00    +0.149 C 
ATOM      2  CB  ALA A   2      24.954  -0.152  23.764  0.00  0.00    +0.031 C 
ENDROOT
BRANCH   1   4
ATOM      3  C   TYR A   1      27.087  -2.289  25.388  0.00  0.00    +0.239 C 
ATOM      4  N   ALA A   2      26.638  -1.030  25.320  0.00  0.00    -0.297 N 
ATOM      5  H   ALA A   2      26.440  -0.525  26.207  0.00  0.00    +0.150 HD
ATOM      6  O   TYR A   1      27.345  -2.987  24.396  0.00  0.00    -0.274 OA
BRANCH   3   7
ATOM      7  CA  TYR A   1      27.285  -2.858  26.783  0.00  0.00    +0.149 C 
BRANCH   7   8
ATOM      8  N   TYR A   1      26.858  -4.241  26.771  0.00  0.00    -0.238 NA
ATOM      9  H   TYR A   1      27.115  -4.829  25.953  0.00  0.00    +0.142 HD
ENDBRANCH   7   8
BRANCH   7  10
ATOM     10  CB  TYR A   1      28.792  -2.816  27.128  0.00  0.00    +0.053 C 
BRANCH  10  11
ATOM     11  CG  TYR A   1      29.379  -1.502  27.544  0.00  0.00    -0.020 A 
ATOM     12  CD2 TYR A   1      29.703  -1.254  28.887  0.00  0.00    -0.001 A 
ATOM     13  CE2 TYR A   1      30.295  -0.093  29.252  0.00  0.00    +0.036 A 
ATOM     14  CZ  TYR A   1      30.620   0.860  28.289  0.00  0.00    +0.134 A 
ATOM     15  CE1 TYR A   1      30.336   0.669  26.980  0.00  0.00    +0.036 A 
ATOM     16  CD1 TYR A   1      29.735  -0.541  26.601  0.00  0.00    -0.001 A 
BRANCH  14  17
ATOM     17  OH  TYR A   1      31.245   2.047  28.600  0.00  0.00    -0.506 OA
ATOM     18  HH  TYR A   1      32.121   1.857  29.020  0.00  0.00    +0.292 HD
ENDBRANCH  14  17
ENDBRANCH  10  11
ENDBRANCH   7  10
ENDBRANCH   3   7
ENDBRANCH   1   4
BRANCH   1  19
ATOM     19  C   ALA A   2      27.033   1.039  24.133  0.00  0.00    +0.241 C 
ATOM     20  O   ALA A   2      27.079   1.662  25.194  0.00  0.00    -0.273 OA
ATOM     21  N   TYR A   3      27.499   1.508  22.984  0.00  0.00    -0.298 N 
ATOM     22  H   TYR A   3      27.499   0.890  22.147  0.00  0.00    +0.150 HD
BRANCH  21  23
ATOM     23  CA  TYR A   3      28.013   2.873  22.863  0.00  0.00    +0.141 C 
BRANCH  23  24
ATOM     24  C   TYR A   3      27.269   3.531  21.730  0.00  0.00    +0.227 C 
ATOM     25  O   TYR A   3      27.171   2.954  20.619  0.00  0.00    -0.286 OA
ENDBRANCH  23  24
BRANCH  23  26
ATOM     26  CB  TYR A   3      29.524   2.826  22.585  0.00  0.00    +0.054 C 
BRANCH  26  27
ATOM     27  CG  TYR A   3      30.161   4.220  22.482  0.00  0.00    -0.020 A 
ATOM     28  CD2 TYR A   3      29.983   5.141  23.515  0.00  0.00    -0.001 A 
ATOM     29  CE2 TYR A   3      30.553   6.419  23.468  0.00  0.00    +0.036 A 
ATOM     30  CZ  TYR A   3      31.329   6.771  22.369  0.00  0.00    +0.134 A 
ATOM     31  CE1 TYR A   3      31.548   5.874  21.326  0.00  0.00    +0.036 A 
ATOM     32  CD1 TYR A   3      30.947   4.591  21.378  0.00  0.00    -0.001 A 
BRANCH  30  33
ATOM     33  OH  TYR A   3      31.906   8.015  22.366  0.00  0.00    -0.506 OA
ATOM     34  HH  TYR A   3      31.636   8.505  23.183  0.00  0.00    +0.292 HD
ENDBRANCH  30  33
ENDBRANCH  26  27
ENDBRANCH  23  26
ENDBRANCH  21  23
ENDBRANCH   1  19
TORSDOF 12
REMARK  Name = ../refined-set-2016/3qfd/3qfd_pocket.pdb
REMARK  314 active torsions:
REMARK  status: ('A' for Active; 'I' for Inactive)
REMARK    1  A    between atoms: _1  and  _3
REMARK    2  A    between atoms: _3  and  _4
REMARK    3  A    between atoms: _3  and  _6
REMARK    4  A    between atoms: _6  and  _7
REMARK    5  A    between atoms: _7  and  _8
REMARK    6  A    between atoms: _10  and  _12
REMARK    7  A    between atoms: _12  and  _13
REMARK    8  A    between atoms: _12  and  _15
REMARK    9  A    between atoms: _15  and  _16
REMARK   10  A    between atoms: _16  and  _17
REMARK   11  A    between atoms: _17  and  _18
REMARK   12  A    between atoms: _27  and  _29
REMARK   13  A    between atoms: _29  and  _30
REMARK   14  A    between atoms: _29  and  _32
REMARK   15  A    between atoms: _32  and  _33
REMARK   16  A    between atoms: _38  and  _39
REMARK   17  A    between atoms: _41  and  _43
REMARK   18  A    between atoms: _43  and  _44
REMARK   19  A    between atoms: _43  and  _46
REMARK   20  A    between atoms: _46  and  _47
REMARK   21  A    between atoms: _53  and  _55
REMARK   22  A    between atoms: _55  and  _56
REMARK   23  A    between atoms: _55  and  _58
REMARK   24  A    between atoms: _58  and  _59
REMARK   25  A    between atoms: _65  and  _67
REMARK   26  A    between atoms: _67  and  _68
REMARK   27  A    between atoms: _71  and  _73
REMARK   28  A    between atoms: _73  and  _74
REMARK   29  A    between atoms: _73  and  _76
REMARK   30  A    between atoms: _79  and  _81
REMARK   31  A    between atoms: _81  and  _82
REMARK   32  A    between atoms: _84  and  _86
REMARK   33  A    between atoms: _86  and  _87
REMARK   34  A    between atoms: _86  and  _89
REMARK   35  A    between atoms: _92  and  _94
REMARK   36  A    between atoms: _94  and  _95
REMARK   37  A    between atoms: _94  and  _97
REMARK   38  A    between atoms: _97  and  _98
REMARK   39  A    between atoms: _104  and  _106
REMARK   40  A    between atoms: _106  and  _107
REMARK   41  A    between atoms: _106  and  _109
REMARK   42  A    between atoms: _112  and  _114
REMARK   43  A    between atoms: _114  and  _115
REMARK   44  A    between atoms: _114  and  _117
REMARK   45  A    between atoms: _117  and  _118
REMARK   46  A    between atoms: _118  and  _119
REMARK   47  A    between atoms: _121  and  _123
REMARK   48  A    between atoms: _123  and  _124
REMARK   49  A    between atoms: _123  and  _126
REMARK   50  A    between atoms: _126  and  _127
REMARK   51  A    between atoms: _130  and  _132
REMARK   52  A    between atoms: _132  and  _133
REMARK   53  A    between atoms: _132  and  _135
REMARK   54  A    between atoms: _135  and  _136
REMARK   55  A    between atoms: _136  and  _137
REMARK   56  A    between atoms: _140  and  _142
REMARK   57  A    between atoms: _142  and  _143
REMARK   58  A    between atoms: _142  and  _145
REMARK   59  A    between atoms: _145  and  _146
REMARK   60  A    between atoms: _151  and  _152
REMARK   61  A    between atoms: _154  and  _156
REMARK   62  A    between atoms: _156  and  _157
REMARK   63  A    between atoms: _159  and  _161
REMARK   64  A    between atoms: _161  and  _162
REMARK   65  A    between atoms: _161  and  _164
REMARK   66  A    between atoms: _164  and  _165
REMARK   67  A    between atoms: _165  and  _166
REMARK   68  A    between atoms: _169  and  _171
REMARK   69  A    between atoms: _171  and  _172
REMARK   70  A    between atoms: _171  and  _174
REMARK   71  A    between atoms: _174  and  _175
REMARK   72  A    between atoms: _178  and  _180
REMARK   73  A    between atoms: _180  and  _181
REMARK   74  A    between atoms: _180  and  _183
REMARK   75  A    between atoms: _183  and  _184
REMARK   76  A    between atoms: _184  and  _185
REMARK   77  A    between atoms: _185  and  _186
REMARK   78  A    between atoms: _195  and  _197
REMARK   79  A    between atoms: _197  and  _198
REMARK   80  A    between atoms: _197  and  _200
REMARK   81  A    between atoms: _200  and  _201
REMARK   82  A    between atoms: _201  and  _202
REMARK   83  A    between atoms: _202  and  _203
REMARK   84  A    between atoms: _203  and  _204
REMARK   85  A    between atoms: _208  and  _210
REMARK   86  A    between atoms: _210  and  _211
REMARK   87  A    between atoms: _210  and  _213
REMARK   88  A    between atoms: _216  and  _218
REMARK   89  A    between atoms: _218  and  _219
REMARK   90  A    between atoms: _222  and  _224
REMARK   91  A    between atoms: _224  and  _225
REMARK   92  A    between atoms: _224  and  _227
REMARK   93  A    between atoms: _227  and  _228
REMARK   94  A    between atoms: _233  and  _235
REMARK   95  A    between atoms: _235  and  _236
REMARK   96  A    between atoms: _235  and  _238
REMARK   97  A    between atoms: _238  and  _239
REMARK   98  A    between atoms: _241  and  _243
REMARK   99  A    between atoms: _243  and  _244
REMARK  100  A    between atoms: _243  and  _246
REMARK  101  A    between atoms: _246  and  _247
REMARK  102  A    between atoms: _247  and  _248
REMARK  103  A    between atoms: _253  and  _255
REMARK  104  A    between atoms: _255  and  _256
REMARK  105  A    between atoms: _255  and  _258
REMARK  106  A    between atoms: _258  and  _259
REMARK  107  A    between atoms: _262  and  _264
REMARK  108  A    between atoms: _264  and  _265
REMARK  109  A    between atoms: _264  and  _267
REMARK  110  A    between atoms: _267  and  _268
REMARK  111  A    between atoms: _273  and  _275
REMARK  112  A    between atoms: _275  and  _276
REMARK  113  A    between atoms: _275  and  _278
REMARK  114  A    between atoms: _278  and  _279
REMARK  115  A    between atoms: _279  and  _280
REMARK  116  A    between atoms: _280  and  _281
REMARK  117  A    between atoms: _290  and  _292
REMARK  118  A    between atoms: _292  and  _293
REMARK  119  A    between atoms: _292  and  _295
REMARK  120  A    between atoms: _298  and  _300
REMARK  121  A    between atoms: _300  and  _301
REMARK  122  A    between atoms: _300  and  _303
REMARK  123  A    between atoms: _303  and  _304
REMARK  124  A    between atoms: _307  and  _309
REMARK  125  A    between atoms: _309  and  _310
REMARK  126  A    between atoms: _309  and  _312
REMARK  127  A    between atoms: _312  and  _313
REMARK  128  A    between atoms: _316  and  _318
REMARK  129  A    between atoms: _318  and  _319
REMARK  130  A    between atoms: _321  and  _323
REMARK  131  A    between atoms: _323  and  _324
REMARK  132  A    between atoms: _323  and  _326
REMARK  133  A    between atoms: _326  and  _327
REMARK  134  A    between atoms: _330  and  _332
REMARK  135  A    between atoms: _332  and  _333
REMARK  136  A    between atoms: _332  and  _335
REMARK  137  A    between atoms: _335  and  _336
REMARK  138  A    between atoms: _339  and  _341
REMARK  139  A    between atoms: _341  and  _342
REMARK  140  A    between atoms: _341  and  _344
REMARK  141  A    between atoms: _344  and  _345
REMARK  142  A    between atoms: _345  and  _346
REMARK  143  A    between atoms: _346  and  _347
REMARK  144  A    between atoms: _356  and  _358
REMARK  145  A    between atoms: _358  and  _359
REMARK  146  A    between atoms: _358  and  _361
REMARK  147  A    between atoms: _361  and  _362
REMARK  148  A    between atoms: _367  and  _368
REMARK  149  A    between atoms: _370  and  _372
REMARK  150  A    between atoms: _372  and  _373
REMARK  151  A    between atoms: _372  and  _375
REMARK  152  A    between atoms: _378  and  _380
REMARK  153  A    between atoms: _380  and  _381
REMARK  154  A    between atoms: _380  and  _383
REMARK  155  A    between atoms: _383  and  _384
REMARK  156  A    between atoms: _384  and  _385
REMARK  157  A    between atoms: _385  and  _386
REMARK  158  A    between atoms: _395  and  _397
REMARK  159  A    between atoms: _397  and  _398
REMARK  160  A    between atoms: _397  and  _400
REMARK  161  A    between atoms: _400  and  _401
REMARK  162  A    between atoms: _406  and  _407
REMARK  163  A    between atoms: _409  and  _411
REMARK  164  A    between atoms: _411  and  _412
REMARK  165  A    between atoms: _414  and  _416
REMARK  166  A    between atoms: _416  and  _417
REMARK  167  A    between atoms: _416  and  _419
REMARK  168  A    between atoms: _419  and  _420
REMARK  169  A    between atoms: _420  and  _723
REMARK  170  A    between atoms: _421  and  _423
REMARK  171  A    between atoms: _423  and  _424
REMARK  172  A    between atoms: _423  and  _426
REMARK  173  A    between atoms: _426  and  _427
REMARK  174  A    between atoms: _432  and  _434
REMARK  175  A    between atoms: _434  and  _435
REMARK  176  A    between atoms: _434  and  _437
REMARK  177  A    between atoms: _437  and  _438
REMARK  178  A    between atoms: _443  and  _444
REMARK  179  A    between atoms: _446  and  _448
REMARK  180  A    between atoms: _448  and  _449
REMARK  181  A    between atoms: _452  and  _454
REMARK  182  A    between atoms: _454  and  _455
REMARK  183  A    between atoms: _454  and  _457
REMARK  184  A    between atoms: _457  and  _458
REMARK  185  A    between atoms: _463  and  _464
REMARK  186  A    between atoms: _466  and  _468
REMARK  187  A    between atoms: _468  and  _469
REMARK  188  A    between atoms: _468  and  _471
REMARK  189  A    between atoms: _471  and  _472
REMARK  190  A    between atoms: _477  and  _478
REMARK  191  A    between atoms: _480  and  _482
REMARK  192  A    between atoms: _482  and  _483
REMARK  193  A    between atoms: _482  and  _485
REMARK  194  A    between atoms: _485  and  _486
REMARK  195  A    between atoms: _489  and  _491
REMARK  196  A    between atoms: _491  and  _492
REMARK  197  A    between atoms: _491  and  _494
REMARK  198  A    between atoms: _494  and  _495
REMARK  199  A    between atoms: _505  and  _507
REMARK  200  A    between atoms: _507  and  _508
REMARK  201  A    between atoms: _511  and  _513
REMARK  202  A    between atoms: _513  and  _514
REMARK  203  A    between atoms: _517  and  _519
REMARK  204  A    between atoms: _519  and  _520
REMARK  205  A    between atoms: _519  and  _522
REMARK  206  A    between atoms: _522  and  _523
REMARK  207  A    between atoms: _523  and  _524
REMARK  208  A    between atoms: _529  and  _531
REMARK  209  A    between atoms: _531  and  _532
REMARK  210  A    between atoms: _531  and  _534
REMARK  211  A    between atoms: _534  and  _535
REMARK  212  A    between atoms: _538  and  _540
REMARK  213  A    between atoms: _540  and  _541
REMARK  214  A    between atoms: _540  and  _543
REMARK  215  A    between atoms: _543  and  _544
REMARK  216  A    between atoms: _547  and  _549
REMARK  217  A    between atoms: _549  and  _550
REMARK  218  A    between atoms: _549  and  _552
REMARK  219  A    between atoms: _552  and  _553
REMARK  220  A    between atoms: _553  and  _554
REMARK  221  A    between atoms: _554  and  _555
REMARK  222  A    between atoms: _555  and  _556
REMARK  223  A    between atoms: _560  and  _562
REMARK  224  A    between atoms: _562  and  _563
REMARK  225  A    between atoms: _562  and  _565
REMARK  226  A    between atoms: _565  and  _566
REMARK  227  A    between atoms: _571  and  _573
REMARK  228  A    between atoms: _573  and  _574
REMARK  229  A    between atoms: _573  and  _576
REMARK  230  A    between atoms: _576  and  _577
REMARK  231  A    between atoms: _577  and  _578
REMARK  232  A    between atoms: _578  and  _579
REMARK  233  A    between atoms: _579  and  _580
REMARK  234  A    between atoms: _584  and  _586
REMARK  235  A    between atoms: _586  and  _587
REMARK  236  A    between atoms: _586  and  _589
REMARK  237  A    between atoms: _589  and  _590
REMARK  238  A    between atoms: _600  and  _602
REMARK  239  A    between atoms: _602  and  _603
REMARK  240  A    between atoms: _602  and  _605
REMARK  241  A    between atoms: _605  and  _606
REMARK  242  A    between atoms: _606  and  _607
REMARK  243  A    between atoms: _610  and  _612
REMARK  244  A    between atoms: _612  and  _613
REMARK  245  A    between atoms: _616  and  _618
REMARK  246  A    between atoms: _618  and  _619
REMARK  247  A    between atoms: _622  and  _624
REMARK  248  A    between atoms: _624  and  _625
REMARK  249  A    between atoms: _624  and  _627
REMARK  250  A    between atoms: _627  and  _628
REMARK  251  A    between atoms: _633  and  _635
REMARK  252  A    between atoms: _635  and  _636
REMARK  253  A    between atoms: _635  and  _638
REMARK  254  A    between atoms: _641  and  _643
REMARK  255  A    between atoms: _643  and  _644
REMARK  256  A    between atoms: _647  and  _649
REMARK  257  A    between atoms: _649  and  _650
REMARK  258  A    between atoms: _649  and  _652
REMARK  259  A    between atoms: _652  and  _653
REMARK  260  A    between atoms: _653  and  _654
REMARK  261  A    between atoms: _659  and  _661
REMARK  262  A    between atoms: _661  and  _662
REMARK  263  A    between atoms: _661  and  _664
REMARK  264  A    between atoms: _664  and  _665
REMARK  265  A    between atoms: _668  and  _670
REMARK  266  A    between atoms: _670  and  _671
REMARK  267  A    between atoms: _670  and  _673
REMARK  268  A    between atoms: _673  and  _674
REMARK  269  A    between atoms: _674  and  _675
REMARK  270  A    between atoms: _675  and  _676
REMARK  271  A    between atoms: _685  and  _687
REMARK  272  A    between atoms: _687  and  _688
REMARK  273  A    between atoms: _687  and  _690
REMARK  274  A    between atoms: _690  and  _691
REMARK  275  A    between atoms: _696  and  _697
REMARK  276  A    between atoms: _699  and  _701
REMARK  277  A    between atoms: _701  and  _702
REMARK  278  A    between atoms: _701  and  _704
REMARK  279  A    between atoms: _704  and  _705
REMARK  280  A    between atoms: _708  and  _710
REMARK  281  A    between atoms: _710  and  _711
REMARK  282  A    between atoms: _710  and  _713
REMARK  283  A    between atoms: _713  and  _714
REMARK  284  A    between atoms: _717  and  _719
REMARK  285  A    between atoms: _719  and  _720
REMARK  286  A    between atoms: _719  and  _722
REMARK  287  A    between atoms: _722  and  _723
REMARK  288  A    between atoms: _724  and  _726
REMARK  289  A    between atoms: _726  and  _727
REMARK  290  A    between atoms: _726  and  _729
REMARK  291  A    between atoms: _732  and  _734
REMARK  292  A    between atoms: _734  and  _735
REMARK  293  A    between atoms: _734  and  _737
REMARK  294  A    between atoms: _737  and  _738
REMARK  295  A    between atoms: _738  and  _739
REMARK  296  A    between atoms: _742  and  _744
REMARK  297  A    between atoms: _744  and  _745
REMARK  298  A    between atoms: _744  and  _747
REMARK  299  A    between atoms: _747  and  _748
REMARK  300  A    between atoms: _758  and  _760
REMARK  301  A    between atoms: _760  and  _761
REMARK  302  A    between atoms: _760  and  _763
REMARK  303  A    between atoms: _763  and  _764
REMARK  304  A    between atoms: _767  and  _769
REMARK  305  A    between atoms: _769  and  _770
REMARK  306  A    between atoms: _769  and  _772
REMARK  307  A    between atoms: _772  and  _773
REMARK  308  A    between atoms: _773  and  _774
REMARK  309  A    between atoms: _774  and  _775
REMARK  310  A    between atoms: _784  and  _786
REMARK  311  A    between atoms: _786  and  _787
REMARK  312  A    between atoms: _786  and  _789
REMARK  313  A    between atoms: _789  and  _790
REMARK  314  A    between atoms: _795  and  _796
REMARK                            x       y       z     vdW  Elec       q    Type
REMARK                         _______ _______ _______ _____ _____    ______ ____
ROOT
ATOM      1  CA  TYR A   1      29.680  -2.663  21.789  0.00  0.00    +0.149 C 
ENDROOT
BRANCH   1   2
ATOM      2  C   TYR A   1      30.331  -4.000  22.176  0.00  0.00    +0.239 C 
ATOM      3  N   ILE A   2      30.030  -4.506  23.382  0.00  0.00    -0.298 N 
ATOM      4  H   ILE A   2      29.410  -3.978  24.029  0.00  0.00    +0.150 HD
ATOM      5  O   TYR A   1      31.046  -4.608  21.359  0.00  0.00    -0.274 OA
BRANCH   3   6
ATOM      6  CA  ILE A   2      30.585  -5.823  23.791  0.00  0.00    +0.137 C 
BRANCH   6   7
ATOM      7  C   ILE A   2      29.558  -6.509  24.697  0.00  0.00    +0.227 C 
ATOM      8  O   ILE A   2      28.802  -5.841  25.386  0.00  0.00    -0.286 OA
ENDBRANCH   6   7
BRANCH   6   9
ATOM      9  CB  ILE A   2      32.001  -5.659  24.506  0.00  0.00    +0.026 C 
ATOM     10  CG2 ILE A   2      31.857  -4.990  25.885  0.00  0.00    +0.002 C 
BRANCH   9  11
ATOM     11  CG1 ILE A   2      32.738  -7.000  24.579  0.00  0.00    +0.002 C 
ATOM     12  CD1 ILE A   2      34.149  -6.911  25.181  0.00  0.00    +0.000 C 
ENDBRANCH   9  11
ENDBRANCH   6   9
ENDBRANCH   3   6
ENDBRANCH   1   2
BRANCH   1  13
ATOM     13  N   TYR A   1      28.255  -2.863  21.669  0.00  0.00    -0.238 NA
ATOM     14  H   TYR A   1      27.712  -3.108  22.521  0.00  0.00    +0.142 HD
ENDBRANCH   1  13
BRANCH   1  15
ATOM     15  CB  TYR A   1      29.962  -1.558  22.811  0.00  0.00    +0.053 C 
BRANCH  15  16
ATOM     16  CG  TYR A   1      31.436  -1.260  22.959  0.00  0.00    -0.020 A 
ATOM     17  CD2 TYR A   1      32.153  -1.735  24.040  0.00  0.00    -0.001 A 
ATOM     18  CE2 TYR A   1      33.541  -1.479  24.158  0.00  0.00    +0.036 A 
ATOM     19  CZ  TYR A   1      34.196  -0.771  23.166  0.00  0.00    +0.134 A 
ATOM     20  CE1 TYR A   1      33.502  -0.299  22.051  0.00  0.00    +0.036 A 
ATOM     21  CD1 TYR A   1      32.115  -0.572  21.950  0.00  0.00    -0.001 A 
BRANCH  19  22
ATOM     22  OH  TYR A   1      35.555  -0.522  23.317  0.00  0.00    -0.506 OA
ATOM     23  HH  TYR A   1      36.042  -1.382  23.379  0.00  0.00    +0.292 HD
ENDBRANCH  19  22
ENDBRANCH  15  16
ENDBRANCH   1  15
TORSDOF 9
REMARK  Name = ../refined-set-2016/3qfd/3qfd_pocket.pdb
REMARK  314 active torsions:
REMARK  status: ('A' for Active; 'I' for Inactive)
REMARK    1  A    between atoms: _1  and  _3
REMARK    2  A    between atoms: _3  and  _4
REMARK    3  A    between atoms: _3  and  _6
REMARK    4  A    between atoms: _6  and  _7
REMARK    5  A    between atoms: _7  and  _8
REMARK    6  A    between atoms: _10  and  _12
REMARK    7  A    between atoms: _12  and  _13
REMARK    8  A    between atoms: _12  and  _15
REMARK    9  A    between atoms: _15  and  _16
REMARK   10  A    between atoms: _16  and  _17
REMARK   11  A    between atoms: _17  and  _18
REMARK   12  A    between atoms: _27  and  _29
REMARK   13  A    between atoms: _29  and  _30
REMARK   14  A    between atoms: _29  and  _32
REMARK   15  A    between atoms: _32  and  _33
REMARK   16  A    between atoms: _38  and  _39
REMARK   17  A    between atoms: _41  and  _43
REMARK   18  A    between atoms: _43  and  _44
REMARK   19  A    between atoms: _43  and  _46
REMARK   20  A    between atoms: _46  and  _47
REMARK   21  A    between atoms: _53  and  _55
REMARK   22  A    between atoms: _55  and  _56
REMARK   23  A    between atoms: _55  and  _58
REMARK   24  A    between atoms: _58  and  _59
REMARK   25  A    between atoms: _65  and  _67
REMARK   26  A    between atoms: _67  and  _68
REMARK   27  A    between atoms: _71  and  _73
REMARK   28  A    between atoms: _73  and  _74
REMARK   29  A    between atoms: _73  and  _76
REMARK   30  A    between atoms: _79  and  _81
REMARK   31  A    between atoms: _81  and  _82
REMARK   32  A    between atoms: _84  and  _86
REMARK   33  A    between atoms: _86  and  _87
REMARK   34  A    between atoms: _86  and  _89
REMARK   35  A    between atoms: _92  and  _94
REMARK   36  A    between atoms: _94  and  _95
REMARK   37  A    between atoms: _94  and  _97
REMARK   38  A    between atoms: _97  and  _98
REMARK   39  A    between atoms: _104  and  _106
REMARK   40  A    between atoms: _106  and  _107
REMARK   41  A    between atoms: _106  and  _109
REMARK   42  A    between atoms: _112  and  _114
REMARK   43  A    between atoms: _114  and  _115
REMARK   44  A    between atoms: _114  and  _117
REMARK   45  A    between atoms: _117  and  _118
REMARK   46  A    between atoms: _118  and  _119
REMARK   47  A    between atoms: _121  and  _123
REMARK   48  A    between atoms: _123  and  _124
REMARK   49  A    between atoms: _123  and  _126
REMARK   50  A    between atoms: _126  and  _127
REMARK   51  A    between atoms: _130  and  _132
REMARK   52  A    between atoms: _132  and  _133
REMARK   53  A    between atoms: _132  and  _135
REMARK   54  A    between atoms: _135  and  _136
REMARK   55  A    between atoms: _136  and  _137
REMARK   56  A    between atoms: _140  and  _142
REMARK   57  A    between atoms: _142  and  _143
REMARK   58  A    between atoms: _142  and  _145
REMARK   59  A    between atoms: _145  and  _146
REMARK   60  A    between atoms: _151  and  _152
REMARK   61  A    between atoms: _154  and  _156
REMARK   62  A    between atoms: _156  and  _157
REMARK   63  A    between atoms: _159  and  _161
REMARK   64  A    between atoms: _161  and  _162
REMARK   65  A    between atoms: _161  and  _164
REMARK   66  A    between atoms: _164  and  _165
REMARK   67  A    between atoms: _165  and  _166
REMARK   68  A    between atoms: _169  and  _171
REMARK   69  A    between atoms: _171  and  _172
REMARK   70  A    between atoms: _171  and  _174
REMARK   71  A    between atoms: _174  and  _175
REMARK   72  A    between atoms: _178  and  _180
REMARK   73  A    between atoms: _180  and  _181
REMARK   74  A    between atoms: _180  and  _183
REMARK   75  A    between atoms: _183  and  _184
REMARK   76  A    between atoms: _184  and  _185
REMARK   77  A    between atoms: _185  and  _186
REMARK   78  A    between atoms: _195  and  _197
REMARK   79  A    between atoms: _197  and  _198
REMARK   80  A    between atoms: _197  and  _200
REMARK   81  A    between atoms: _200  and  _201
REMARK   82  A    between atoms: _201  and  _202
REMARK   83  A    between atoms: _202  and  _203
REMARK   84  A    between atoms: _203  and  _204
REMARK   85  A    between atoms: _208  and  _210
REMARK   86  A    between atoms: _210  and  _211
REMARK   87  A    between atoms: _210  and  _213
REMARK   88  A    between atoms: _216  and  _218
REMARK   89  A    between atoms: _218  and  _219
REMARK   90  A    between atoms: _222  and  _224
REMARK   91  A    between atoms: _224  and  _225
REMARK   92  A    between atoms: _224  and  _227
REMARK   93  A    between atoms: _227  and  _228
REMARK   94  A    between atoms: _233  and  _235
REMARK   95  A    between atoms: _235  and  _236
REMARK   96  A    between atoms: _235  and  _238
REMARK   97  A    between atoms: _238  and  _239
REMARK   98  A    between atoms: _241  and  _243
REMARK   99  A    between atoms: _243  and  _244
REMARK  100  A    between atoms: _243  and  _246
REMARK  101  A    between atoms: _246  and  _247
REMARK  102  A    between atoms: _247  and  _248
REMARK  103  A    between atoms: _253  and  _255
REMARK  104  A    between atoms: _255  and  _256
REMARK  105  A    between atoms: _255  and  _258
REMARK  106  A    between atoms: _258  and  _259
REMARK  107  A    between atoms: _262  and  _264
REMARK  108  A    between atoms: _264  and  _265
REMARK  109  A    between atoms: _264  and  _267
REMARK  110  A    between atoms: _267  and  _268
REMARK  111  A    between atoms: _273  and  _275
REMARK  112  A    between atoms: _275  and  _276
REMARK  113  A    between atoms: _275  and  _278
REMARK  114  A    between atoms: _278  and  _279
REMARK  115  A    between atoms: _279  and  _280
REMARK  116  A    between atoms: _280  and  _281
REMARK  117  A    between atoms: _290  and  _292
REMARK  118  A    between atoms: _292  and  _293
REMARK  119  A    between atoms: _292  and  _295
REMARK  120  A    between atoms: _298  and  _300
REMARK  121  A    between atoms: _300  and  _301
REMARK  122  A    between atoms: _300  and  _303
REMARK  123  A    between atoms: _303  and  _304
REMARK  124  A    between atoms: _307  and  _309
REMARK  125  A    between atoms: _309  and  _310
REMARK  126  A    between atoms: _309  and  _312
REMARK  127  A    between atoms: _312  and  _313
REMARK  128  A    between atoms: _316  and  _318
REMARK  129  A    between atoms: _318  and  _319
REMARK  130  A    between atoms: _321  and  _323
REMARK  131  A    between atoms: _323  and  _324
REMARK  132  A    between atoms: _323  and  _326
REMARK  133  A    between atoms: _326  and  _327
REMARK  134  A    between atoms: _330  and  _332
REMARK  135  A    between atoms: _332  and  _333
REMARK  136  A    between atoms: _332  and  _335
REMARK  137  A    between atoms: _335  and  _336
REMARK  138  A    between atoms: _339  and  _341
REMARK  139  A    between atoms: _341  and  _342
REMARK  140  A    between atoms: _341  and  _344
REMARK  141  A    between atoms: _344  and  _345
REMARK  142  A    between atoms: _345  and  _346
REMARK  143  A    between atoms: _346  and  _347
REMARK  144  A    between atoms: _356  and  _358
REMARK  145  A    between atoms: _358  and  _359
REMARK  146  A    between atoms: _358  and  _361
REMARK  147  A    between atoms: _361  and  _362
REMARK  148  A    between atoms: _367  and  _368
REMARK  149  A    between atoms: _370  and  _372
REMARK  150  A    between atoms: _372  and  _373
REMARK  151  A    between atoms: _372  and  _375
REMARK  152  A    between atoms: _378  and  _380
REMARK  153  A    between atoms: _380  and  _381
REMARK  154  A    between atoms: _380  and  _383
REMARK  155  A    between atoms: _383  and  _384
REMARK  156  A    between atoms: _384  and  _385
REMARK  157  A    between atoms: _385  and  _386
REMARK  158  A    between atoms: _395  and  _397
REMARK  159  A    between atoms: _397  and  _398
REMARK  160  A    between atoms: _397  and  _400
REMARK  161  A    between atoms: _400  and  _401
REMARK  162  A    between atoms: _406  and  _407
REMARK  163  A    between atoms: _409  and  _411
REMARK  164  A    between atoms: _411  and  _412
REMARK  165  A    between atoms: _414  and  _416
REMARK  166  A    between atoms: _416  and  _417
REMARK  167  A    between atoms: _416  and  _419
REMARK  168  A    between atoms: _419  and  _420
REMARK  169  A    between atoms: _420  and  _723
REMARK  170  A    between atoms: _421  and  _423
REMARK  171  A    between atoms: _423  and  _424
REMARK  172  A    between atoms: _423  and  _426
REMARK  173  A    between atoms: _426  and  _427
REMARK  174  A    between atoms: _432  and  _434
REMARK  175  A    between atoms: _434  and  _435
REMARK  176  A    between atoms: _434  and  _437
REMARK  177  A    between atoms: _437  and  _438
REMARK  178  A    between atoms: _443  and  _444
REMARK  179  A    between atoms: _446  and  _448
REMARK  180  A    between atoms: _448  and  _449
REMARK  181  A    between atoms: _452  and  _454
REMARK  182  A    between atoms: _454  and  _455
REMARK  183  A    between atoms: _454  and  _457
REMARK  184  A    between atoms: _457  and  _458
REMARK  185  A    between atoms: _463  and  _464
REMARK  186  A    between atoms: _466  and  _468
REMARK  187  A    between atoms: _468  and  _469
REMARK  188  A    between atoms: _468  and  _471
REMARK  189  A    between atoms: _471  and  _472
REMARK  190  A    between atoms: _477  and  _478
REMARK  191  A    between atoms: _480  and  _482
REMARK  192  A    between atoms: _482  and  _483
REMARK  193  A    between atoms: _482  and  _485
REMARK  194  A    between atoms: _485  and  _486
REMARK  195  A    between atoms: _489  and  _491
REMARK  196  A    between atoms: _491  and  _492
REMARK  197  A    between atoms: _491  and  _494
REMARK  198  A    between atoms: _494  and  _495
REMARK  199  A    between atoms: _505  and  _507
REMARK  200  A    between atoms: _507  and  _508
REMARK  201  A    between atoms: _511  and  _513
REMARK  202  A    between atoms: _513  and  _514
REMARK  203  A    between atoms: _517  and  _519
REMARK  204  A    between atoms: _519  and  _520
REMARK  205  A    between atoms: _519  and  _522
REMARK  206  A    between atoms: _522  and  _523
REMARK  207  A    between atoms: _523  and  _524
REMARK  208  A    between atoms: _529  and  _531
REMARK  209  A    between atoms: _531  and  _532
REMARK  210  A    between atoms: _531  and  _534
REMARK  211  A    between atoms: _534  and  _535
REMARK  212  A    between atoms: _538  and  _540
REMARK  213  A    between atoms: _540  and  _541
REMARK  214  A    between atoms: _540  and  _543
REMARK  215  A    between atoms: _543  and  _544
REMARK  216  A    between atoms: _547  and  _549
REMARK  217  A    between atoms: _549  and  _550
REMARK  218  A    between atoms: _549  and  _552
REMARK  219  A    between atoms: _552  and  _553
REMARK  220  A    between atoms: _553  and  _554
REMARK  221  A    between atoms: _554  and  _555
REMARK  222  A    between atoms: _555  and  _556
REMARK  223  A    between atoms: _560  and  _562
REMARK  224  A    between atoms: _562  and  _563
REMARK  225  A    between atoms: _562  and  _565
REMARK  226  A    between atoms: _565  and  _566
REMARK  227  A    between atoms: _571  and  _573
REMARK  228  A    between atoms: _573  and  _574
REMARK  229  A    between atoms: _573  and  _576
REMARK  230  A    between atoms: _576  and  _577
REMARK  231  A    between atoms: _577  and  _578
REMARK  232  A    between atoms: _578  and  _579
REMARK  233  A    between atoms: _579  and  _580
REMARK  234  A    between atoms: _584  and  _586
REMARK  235  A    between atoms: _586  and  _587
REMARK  236  A    between atoms: _586  and  _589
REMARK  237  A    between atoms: _589  and  _590
REMARK  238  A    between atoms: _600  and  _602
REMARK  239  A    between atoms: _602  and  _603
REMARK  240  A    between atoms: _602  and  _605
REMARK  241  A    between atoms: _605  and  _606
REMARK  242  A    between atoms: _606  and  _607
REMARK  243  A    between atoms: _610  and  _612
REMARK  244  A    between atoms: _612  and  _613
REMARK  245  A    between atoms: _616  and  _618
REMARK  246  A    between atoms: _618  and  _619
REMARK  247  A    between atoms: _622  and  _624
REMARK  248  A    between atoms: _624  and  _625
REMARK  249  A    between atoms: _624  and  _627
REMARK  250  A    between atoms: _627  and  _628
REMARK  251  A    between atoms: _633  and  _635
REMARK  252  A    between atoms: _635  and  _636
REMARK  253  A    between atoms: _635  and  _638
REMARK  254  A    between atoms: _641  and  _643
REMARK  255  A    between atoms: _643  and  _644
REMARK  256  A    between atoms: _647  and  _649
REMARK  257  A    between atoms: _649  and  _650
REMARK  258  A    between atoms: _649  and  _652
REMARK  259  A    between atoms: _652  and  _653
REMARK  260  A    between atoms: _653  and  _654
REMARK  261  A    between atoms: _659  and  _661
REMARK  262  A    between atoms: _661  and  _662
REMARK  263  A    between atoms: _661  and  _664
REMARK  264  A    between atoms: _664  and  _665
REMARK  265  A    between atoms: _668  and  _670
REMARK  266  A    between atoms: _670  and  _671
REMARK  267  A    between atoms: _670  and  _673
REMARK  268  A    between atoms: _673  and  _674
REMARK  269  A    between atoms: _674  and  _675
REMARK  270  A    between atoms: _675  and  _676
REMARK  271  A    between atoms: _685  and  _687
REMARK  272  A    between atoms: _687  and  _688
REMARK  273  A    between atoms: _687  and  _690
REMARK  274  A    between atoms: _690  and  _691
REMARK  275  A    between atoms: _696  and  _697
REMARK  276  A    between atoms: _699  and  _701
REMARK  277  A    between atoms: _701  and  _702
REMARK  278  A    between atoms: _701  and  _704
REMARK  279  A    between atoms: _704  and  _705
REMARK  280  A    between atoms: _708  and  _710
REMARK  281  A    between atoms: _710  and  _711
REMARK  282  A    between atoms: _710  and  _713
REMARK  283  A    between atoms: _713  and  _714
REMARK  284  A    between atoms: _717  and  _719
REMARK  285  A    between atoms: _719  and  _720
REMARK  286  A    between atoms: _719  and  _722
REMARK  287  A    between atoms: _722  and  _723
REMARK  288  A    between atoms: _724  and  _726
REMARK  289  A    between atoms: _726  and  _727
REMARK  290  A    between atoms: _726  and  _729
REMARK  291  A    between atoms: _732  and  _734
REMARK  292  A    between atoms: _734  and  _735
REMARK  293  A    between atoms: _734  and  _737
REMARK  294  A    between atoms: _737  and  _738
REMARK  295  A    between atoms: _738  and  _739
REMARK  296  A    between atoms: _742  and  _744
REMARK  297  A    between atoms: _744  and  _745
REMARK  298  A    between atoms: _744  and  _747
REMARK  299  A    between atoms: _747  and  _748
REMARK  300  A    between atoms: _758  and  _760
REMARK  301  A    between atoms: _760  and  _761
REMARK  302  A    between atoms: _760  and  _763
REMARK  303  A    between atoms: _763  and  _764
REMARK  304  A    between atoms: _767  and  _769
REMARK  305  A    between atoms: _769  and  _770
REMARK  306  A    between atoms: _769  and  _772
REMARK  307  A    between atoms: _772  and  _773
REMARK  308  A    between atoms: _773  and  _774
REMARK  309  A    between atoms: _774  and  _775
REMARK  310  A    between atoms: _784  and  _786
REMARK  311  A    between atoms: _786  and  _787
REMARK  312  A    between atoms: _786  and  _789
REMARK  313  A    between atoms: _789  and  _790
REMARK  314  A    between atoms: _795  and  _796
REMARK                            x       y       z     vdW  Elec       q    Type
REMARK                         _______ _______ _______ _____ _____    ______ ____
ROOT
ATOM      1  CG  TRP A   1      34.141 -10.935  26.490  0.00  0.00    -0.002 A 
ATOM      2  CD2 TRP A   1      33.386 -10.267  27.485  0.00  0.00    +0.013 A 
ATOM      3  CE2 TRP A   1      34.051 -10.459  28.708  0.00  0.00    +0.056 A 
ATOM      4  CZ2 TRP A   1      33.571  -9.927  29.911  0.00  0.00    +0.017 A 
ATOM      5  CH2 TRP A   1      32.409  -9.196  29.866  0.00  0.00    +0.001 A 
ATOM      6  CZ3 TRP A   1      31.693  -8.999  28.678  0.00  0.00    +0.000 A 
ATOM      7  NE1 TRP A   1      35.177 -11.212  28.460  0.00  0.00    -0.352 N 
ATOM      8  HE1 TRP A   1      35.869 -11.520  29.173  0.00  0.00    +0.166 HD
ATOM      9  CE3 TRP A   1      32.180  -9.524  27.468  0.00  0.00    +0.001 A 
ATOM     10  CD1 TRP A   1      35.236 -11.488  27.127  0.00  0.00    +0.068 A 
ENDROOT
BRANCH   1  11
ATOM     11  CB  TRP A   1      33.831 -11.024  25.026  0.00  0.00    +0.053 C 
BRANCH  11  12
ATOM     12  CA  TRP A   1      32.871 -12.164  24.690  0.00  0.00    +0.137 C 
BRANCH  12  13
ATOM     13  N   TRP A   1      33.446 -13.424  25.114  0.00  0.00    -0.239 NA
ATOM     14  H   TRP A   1      34.360 -13.710  24.707  0.00  0.00    +0.142 HD
ENDBRANCH  12  13
BRANCH  12  15
ATOM     15  C   TRP A   1      32.572 -12.065  23.186  0.00  0.00    +0.224 C 
ATOM     16  O   TRP A   1      33.293 -12.621  22.359  0.00  0.00    -0.287 OA
ENDBRANCH  12  15
ENDBRANCH  11  12
ENDBRANCH   1  11
TORSDOF 4
REMARK  Name = ../refined-set-2016/3qfd/3qfd_pocket.pdb
REMARK  314 active torsions:
REMARK  status: ('A' for Active; 'I' for Inactive)
REMARK    1  A    between atoms: _1  and  _3
REMARK    2  A    between atoms: _3  and  _4
REMARK    3  A    between atoms: _3  and  _6
REMARK    4  A    between atoms: _6  and  _7
REMARK    5  A    between atoms: _7  and  _8
REMARK    6  A    between atoms: _10  and  _12
REMARK    7  A    between atoms: _12  and  _13
REMARK    8  A    between atoms: _12  and  _15
REMARK    9  A    between atoms: _15  and  _16
REMARK   10  A    between atoms: _16  and  _17
REMARK   11  A    between atoms: _17  and  _18
REMARK   12  A    between atoms: _27  and  _29
REMARK   13  A    between atoms: _29  and  _30
REMARK   14  A    between atoms: _29  and  _32
REMARK   15  A    between atoms: _32  and  _33
REMARK   16  A    between atoms: _38  and  _39
REMARK   17  A    between atoms: _41  and  _43
REMARK   18  A    between atoms: _43  and  _44
REMARK   19  A    between atoms: _43  and  _46
REMARK   20  A    between atoms: _46  and  _47
REMARK   21  A    between atoms: _53  and  _55
REMARK   22  A    between atoms: _55  and  _56
REMARK   23  A    between atoms: _55  and  _58
REMARK   24  A    between atoms: _58  and  _59
REMARK   25  A    between atoms: _65  and  _67
REMARK   26  A    between atoms: _67  and  _68
REMARK   27  A    between atoms: _71  and  _73
REMARK   28  A    between atoms: _73  and  _74
REMARK   29  A    between atoms: _73  and  _76
REMARK   30  A    between atoms: _79  and  _81
REMARK   31  A    between atoms: _81  and  _82
REMARK   32  A    between atoms: _84  and  _86
REMARK   33  A    between atoms: _86  and  _87
REMARK   34  A    between atoms: _86  and  _89
REMARK   35  A    between atoms: _92  and  _94
REMARK   36  A    between atoms: _94  and  _95
REMARK   37  A    between atoms: _94  and  _97
REMARK   38  A    between atoms: _97  and  _98
REMARK   39  A    between atoms: _104  and  _106
REMARK   40  A    between atoms: _106  and  _107
REMARK   41  A    between atoms: _106  and  _109
REMARK   42  A    between atoms: _112  and  _114
REMARK   43  A    between atoms: _114  and  _115
REMARK   44  A    between atoms: _114  and  _117
REMARK   45  A    between atoms: _117  and  _118
REMARK   46  A    between atoms: _118  and  _119
REMARK   47  A    between atoms: _121  and  _123
REMARK   48  A    between atoms: _123  and  _124
REMARK   49  A    between atoms: _123  and  _126
REMARK   50  A    between atoms: _126  and  _127
REMARK   51  A    between atoms: _130  and  _132
REMARK   52  A    between atoms: _132  and  _133
REMARK   53  A    between atoms: _132  and  _135
REMARK   54  A    between atoms: _135  and  _136
REMARK   55  A    between atoms: _136  and  _137
REMARK   56  A    between atoms: _140  and  _142
REMARK   57  A    between atoms: _142  and  _143
REMARK   58  A    between atoms: _142  and  _145
REMARK   59  A    between atoms: _145  and  _146
REMARK   60  A    between atoms: _151  and  _152
REMARK   61  A    between atoms: _154  and  _156
REMARK   62  A    between atoms: _156  and  _157
REMARK   63  A    between atoms: _159  and  _161
REMARK   64  A    between atoms: _161  and  _162
REMARK   65  A    between atoms: _161  and  _164
REMARK   66  A    between atoms: _164  and  _165
REMARK   67  A    between atoms: _165  and  _166
REMARK   68  A    between atoms: _169  and  _171
REMARK   69  A    between atoms: _171  and  _172
REMARK   70  A    between atoms: _171  and  _174
REMARK   71  A    between atoms: _174  and  _175
REMARK   72  A    between atoms: _178  and  _180
REMARK   73  A    between atoms: _180  and  _181
REMARK   74  A    between atoms: _180  and  _183
REMARK   75  A    between atoms: _183  and  _184
REMARK   76  A    between atoms: _184  and  _185
REMARK   77  A    between atoms: _185  and  _186
REMARK   78  A    between atoms: _195  and  _197
REMARK   79  A    between atoms: _197  and  _198
REMARK   80  A    between atoms: _197  and  _200
REMARK   81  A    between atoms: _200  and  _201
REMARK   82  A    between atoms: _201  and  _202
REMARK   83  A    between atoms: _202  and  _203
REMARK   84  A    between atoms: _203  and  _204
REMARK   85  A    between atoms: _208  and  _210
REMARK   86  A    between atoms: _210  and  _211
REMARK   87  A    between atoms: _210  and  _213
REMARK   88  A    between atoms: _216  and  _218
REMARK   89  A    between atoms: _218  and  _219
REMARK   90  A    between atoms: _222  and  _224
REMARK   91  A    between atoms: _224  and  _225
REMARK   92  A    between atoms: _224  and  _227
REMARK   93  A    between atoms: _227  and  _228
REMARK   94  A    between atoms: _233  and  _235
REMARK   95  A    between atoms: _235  and  _236
REMARK   96  A    between atoms: _235  and  _238
REMARK   97  A    between atoms: _238  and  _239
REMARK   98  A    between atoms: _241  and  _243
REMARK   99  A    between atoms: _243  and  _244
REMARK  100  A    between atoms: _243  and  _246
REMARK  101  A    between atoms: _246  and  _247
REMARK  102  A    between atoms: _247  and  _248
REMARK  103  A    between atoms: _253  and  _255
REMARK  104  A    between atoms: _255  and  _256
REMARK  105  A    between atoms: _255  and  _258
REMARK  106  A    between atoms: _258  and  _259
REMARK  107  A    between atoms: _262  and  _264
REMARK  108  A    between atoms: _264  and  _265
REMARK  109  A    between atoms: _264  and  _267
REMARK  110  A    between atoms: _267  and  _268
REMARK  111  A    between atoms: _273  and  _275
REMARK  112  A    between atoms: _275  and  _276
REMARK  113  A    between atoms: _275  and  _278
REMARK  114  A    between atoms: _278  and  _279
REMARK  115  A    between atoms: _279  and  _280
REMARK  116  A    between atoms: _280  and  _281
REMARK  117  A    between atoms: _290  and  _292
REMARK  118  A    between atoms: _292  and  _293
REMARK  119  A    between atoms: _292  and  _295
REMARK  120  A    between atoms: _298  and  _300
REMARK  121  A    between atoms: _300  and  _301
REMARK  122  A    between atoms: _300  and  _303
REMARK  123  A    between atoms: _303  and  _304
REMARK  124  A    between atoms: _307  and  _309
REMARK  125  A    between atoms: _309  and  _310
REMARK  126  A    between atoms: _309  and  _312
REMARK  127  A    between atoms: _312  and  _313
REMARK  128  A    between atoms: _316  and  _318
REMARK  129  A    between atoms: _318  and  _319
REMARK  130  A    between atoms: _321  and  _323
REMARK  131  A    between atoms: _323  and  _324
REMARK  132  A    between atoms: _323  and  _326
REMARK  133  A    between atoms: _326  and  _327
REMARK  134  A    between atoms: _330  and  _332
REMARK  135  A    between atoms: _332  and  _333
REMARK  136  A    between atoms: _332  and  _335
REMARK  137  A    between atoms: _335  and  _336
REMARK  138  A    between atoms: _339  and  _341
REMARK  139  A    between atoms: _341  and  _342
REMARK  140  A    between atoms: _341  and  _344
REMARK  141  A    between atoms: _344  and  _345
REMARK  142  A    between atoms: _345  and  _346
REMARK  143  A    between atoms: _346  and  _347
REMARK  144  A    between atoms: _356  and  _358
REMARK  145  A    between atoms: _358  and  _359
REMARK  146  A    between atoms: _358  and  _361
REMARK  147  A    between atoms: _361  and  _362
REMARK  148  A    between atoms: _367  and  _368
REMARK  149  A    between atoms: _370  and  _372
REMARK  150  A    between atoms: _372  and  _373
REMARK  151  A    between atoms: _372  and  _375
REMARK  152  A    between atoms: _378  and  _380
REMARK  153  A    between atoms: _380  and  _381
REMARK  154  A    between atoms: _380  and  _383
REMARK  155  A    between atoms: _383  and  _384
REMARK  156  A    between atoms: _384  and  _385
REMARK  157  A    between atoms: _385  and  _386
REMARK  158  A    between atoms: _395  and  _397
REMARK  159  A    between atoms: _397  and  _398
REMARK  160  A    between atoms: _397  and  _400
REMARK  161  A    between atoms: _400  and  _401
REMARK  162  A    between atoms: _406  and  _407
REMARK  163  A    between atoms: _409  and  _411
REMARK  164  A    between atoms: _411  and  _412
REMARK  165  A    between atoms: _414  and  _416
REMARK  166  A    between atoms: _416  and  _417
REMARK  167  A    between atoms: _416  and  _419
REMARK  168  A    between atoms: _419  and  _420
REMARK  169  A    between atoms: _420  and  _723
REMARK  170  A    between atoms: _421  and  _423
REMARK  171  A    between atoms: _423  and  _424
REMARK  172  A    between atoms: _423  and  _426
REMARK  173  A    between atoms: _426  and  _427
REMARK  174  A    between atoms: _432  and  _434
REMARK  175  A    between atoms: _434  and  _435
REMARK  176  A    between atoms: _434  and  _437
REMARK  177  A    between atoms: _437  and  _438
REMARK  178  A    between atoms: _443  and  _444
REMARK  179  A    between atoms: _446  and  _448
REMARK  180  A    between atoms: _448  and  _449
REMARK  181  A    between atoms: _452  and  _454
REMARK  182  A    between atoms: _454  and  _455
REMARK  183  A    between atoms: _454  and  _457
REMARK  184  A    between atoms: _457  and  _458
REMARK  185  A    between atoms: _463  and  _464
REMARK  186  A    between atoms: _466  and  _468
REMARK  187  A    between atoms: _468  and  _469
REMARK  188  A    between atoms: _468  and  _471
REMARK  189  A    between atoms: _471  and  _472
REMARK  190  A    between atoms: _477  and  _478
REMARK  191  A    between atoms: _480  and  _482
REMARK  192  A    between atoms: _482  and  _483
REMARK  193  A    between atoms: _482  and  _485
REMARK  194  A    between atoms: _485  and  _486
REMARK  195  A    between atoms: _489  and  _491
REMARK  196  A    between atoms: _491  and  _492
REMARK  197  A    between atoms: _491  and  _494
REMARK  198  A    between atoms: _494  and  _495
REMARK  199  A    between atoms: _505  and  _507
REMARK  200  A    between atoms: _507  and  _508
REMARK  201  A    between atoms: _511  and  _513
REMARK  202  A    between atoms: _513  and  _514
REMARK  203  A    between atoms: _517  and  _519
REMARK  204  A    between atoms: _519  and  _520
REMARK  205  A    between atoms: _519  and  _522
REMARK  206  A    between atoms: _522  and  _523
REMARK  207  A    between atoms: _523  and  _524
REMARK  208  A    between atoms: _529  and  _531
REMARK  209  A    between atoms: _531  and  _532
REMARK  210  A    between atoms: _531  and  _534
REMARK  211  A    between atoms: _534  and  _535
REMARK  212  A    between atoms: _538  and  _540
REMARK  213  A    between atoms: _540  and  _541
REMARK  214  A    between atoms: _540  and  _543
REMARK  215  A    between atoms: _543  and  _544
REMARK  216  A    between atoms: _547  and  _549
REMARK  217  A    between atoms: _549  and  _550
REMARK  218  A    between atoms: _549  and  _552
REMARK  219  A    between atoms: _552  and  _553
REMARK  220  A    between atoms: _553  and  _554
REMARK  221  A    between atoms: _554  and  _555
REMARK  222  A    between atoms: _555  and  _556
REMARK  223  A    between atoms: _560  and  _562
REMARK  224  A    between atoms: _562  and  _563
REMARK  225  A    between atoms: _562  and  _565
REMARK  226  A    between atoms: _565  and  _566
REMARK  227  A    between atoms: _571  and  _573
REMARK  228  A    between atoms: _573  and  _574
REMARK  229  A    between atoms: _573  and  _576
REMARK  230  A    between atoms: _576  and  _577
REMARK  231  A    between atoms: _577  and  _578
REMARK  232  A    between atoms: _578  and  _579
REMARK  233  A    between atoms: _579  and  _580
REMARK  234  A    between atoms: _584  and  _586
REMARK  235  A    between atoms: _586  and  _587
REMARK  236  A    between atoms: _586  and  _589
REMARK  237  A    between atoms: _589  and  _590
REMARK  238  A    between atoms: _600  and  _602
REMARK  239  A    between atoms: _602  and  _603
REMARK  240  A    between atoms: _602  and  _605
REMARK  241  A    between atoms: _605  and  _606
REMARK  242  A    between atoms: _606  and  _607
REMARK  243  A    between atoms: _610  and  _612
REMARK  244  A    between atoms: _612  and  _613
REMARK  245  A    between atoms: _616  and  _618
REMARK  246  A    between atoms: _618  and  _619
REMARK  247  A    between atoms: _622  and  _624
REMARK  248  A    between atoms: _624  and  _625
REMARK  249  A    between atoms: _624  and  _627
REMARK  250  A    between atoms: _627  and  _628
REMARK  251  A    between atoms: _633  and  _635
REMARK  252  A    between atoms: _635  and  _636
REMARK  253  A    between atoms: _635  and  _638
REMARK  254  A    between atoms: _641  and  _643
REMARK  255  A    between atoms: _643  and  _644
REMARK  256  A    between atoms: _647  and  _649
REMARK  257  A    between atoms: _649  and  _650
REMARK  258  A    between atoms: _649  and  _652
REMARK  259  A    between atoms: _652  and  _653
REMARK  260  A    between atoms: _653  and  _654
REMARK  261  A    between atoms: _659  and  _661
REMARK  262  A    between atoms: _661  and  _662
REMARK  263  A    between atoms: _661  and  _664
REMARK  264  A    between atoms: _664  and  _665
REMARK  265  A    between atoms: _668  and  _670
REMARK  266  A    between atoms: _670  and  _671
REMARK  267  A    between atoms: _670  and  _673
REMARK  268  A    between atoms: _673  and  _674
REMARK  269  A    between atoms: _674  and  _675
REMARK  270  A    between atoms: _675  and  _676
REMARK  271  A    between atoms: _685  and  _687
REMARK  272  A    between atoms: _687  and  _688
REMARK  273  A    between atoms: _687  and  _690
REMARK  274  A    between atoms: _690  and  _691
REMARK  275  A    between atoms: _696  and  _697
REMARK  276  A    between atoms: _699  and  _701
REMARK  277  A    between atoms: _701  and  _702
REMARK  278  A    between atoms: _701  and  _704
REMARK  279  A    between atoms: _704  and  _705
REMARK  280  A    between atoms: _708  and  _710
REMARK  281  A    between atoms: _710  and  _711
REMARK  282  A    between atoms: _710  and  _713
REMARK  283  A    between atoms: _713  and  _714
REMARK  284  A    between atoms: _717  and  _719
REMARK  285  A    between atoms: _719  and  _720
REMARK  286  A    between atoms: _719  and  _722
REMARK  287  A    between atoms: _722  and  _723
REMARK  288  A    between atoms: _724  and  _726
REMARK  289  A    between atoms: _726  and  _727
REMARK  290  A    between atoms: _726  and  _729
REMARK  291  A    between atoms: _732  and  _734
REMARK  292  A    between atoms: _734  and  _735
REMARK  293  A    between atoms: _734  and  _737
REMARK  294  A    between atoms: _737  and  _738
REMARK  295  A    between atoms: _738  and  _739
REMARK  296  A    between atoms: _742  and  _744
REMARK  297  A    between atoms: _744  and  _745
REMARK  298  A    between atoms: _744  and  _747
REMARK  299  A    between atoms: _747  and  _748
REMARK  300  A    between atoms: _758  and  _760
REMARK  301  A    between atoms: _760  and  _761
REMARK  302  A    between atoms: _760  and  _763
REMARK  303  A    between atoms: _763  and  _764
REMARK  304  A    between atoms: _767  and  _769
REMARK  305  A    between atoms: _769  and  _770
REMARK  306  A    between atoms: _769  and  _772
REMARK  307  A    between atoms: _772  and  _773
REMARK  308  A    between atoms: _773  and  _774
REMARK  309  A    between atoms: _774  and  _775
REMARK  310  A    between atoms: _784  and  _786
REMARK  311  A    between atoms: _786  and  _787
REMARK  312  A    between atoms: _786  and  _789
REMARK  313  A    between atoms: _789  and  _790
REMARK  314  A    between atoms: _795  and  _796
REMARK                            x       y       z     vdW  Elec       q    Type
REMARK                         _______ _______ _______ _____ _____    ______ ____
ROOT
ATOM      1  CA  LYS A   8      41.754  -6.105  28.200  0.00  0.00    +0.149 C 
ENDROOT
BRANCH   1   2
ATOM      2  C   LYS A   8      40.917  -6.852  29.239  0.00  0.00    +0.241 C 
ATOM      3  O   LYS A   8      41.412  -7.217  30.332  0.00  0.00    -0.273 OA
ATOM      4  N   TRP A   9      39.677  -7.153  28.858  0.00  0.00    -0.297 N 
ATOM      5  H   TRP A   9      39.333  -6.875  27.917  0.00  0.00    +0.150 HD
BRANCH   4   6
ATOM      6  CA  TRP A   9      38.801  -7.883  29.785  0.00  0.00    +0.153 C 
BRANCH   6   7
ATOM      7  C   TRP A   9      39.158  -9.360  29.885  0.00  0.00    +0.241 C 
ATOM      8  O   TRP A   9      38.979  -9.958  30.955  0.00  0.00    -0.273 OA
ATOM      9  N   GLU A  10      39.705  -9.936  28.807  0.00  0.00    -0.297 N 
ATOM     10  H   GLU A  10      39.775  -9.407  27.914  0.00  0.00    +0.150 HD
BRANCH   9  11
ATOM     11  CA  GLU A  10      40.202 -11.303  28.885  0.00  0.00    +0.149 C 
BRANCH  11  12
ATOM     12  C   GLU A  10      41.451 -11.384  29.768  0.00  0.00    +0.241 C 
ATOM     13  O   GLU A  10      41.534 -12.239  30.623  0.00  0.00    -0.273 OA
ATOM     14  N   ALA A  11      42.398 -10.457  29.566  0.00  0.00    -0.297 N 
ATOM     15  H   ALA A  11      42.260  -9.738  28.828  0.00  0.00    +0.150 HD
BRANCH  14  16
ATOM     16  CA  ALA A  11      43.627 -10.440  30.369  0.00  0.00    +0.149 C 
ATOM     17  CB  ALA A  11      44.596  -9.371  29.866  0.00  0.00    +0.031 C 
BRANCH  16  18
ATOM     18  C   ALA A  11      43.320 -10.225  31.866  0.00  0.00    +0.241 C 
ATOM     19  O   ALA A  11      44.054 -10.700  32.731  0.00  0.00    -0.273 OA
ATOM     20  N   ALA A  12      42.222  -9.533  32.152  0.00  0.00    -0.297 N 
ATOM     21  H   ALA A  12      41.609  -9.210  31.376  0.00  0.00    +0.150 HD
BRANCH  20  22
ATOM     22  CA  ALA A  12      41.848  -9.209  33.552  0.00  0.00    +0.149 C 
ATOM     23  CB  ALA A  12      41.304  -7.792  33.626  0.00  0.00    +0.031 C 
BRANCH  22  24
ATOM     24  C   ALA A  12      40.836 -10.183  34.155  0.00  0.00    +0.241 C 
ATOM     25  O   ALA A  12      40.385  -9.974  35.296  0.00  0.00    -0.273 OA
ATOM     26  N   HIS A  13      40.442 -11.188  33.369  0.00  0.00    -0.297 N 
ATOM     27  H   HIS A  13      40.792 -11.222  32.390  0.00  0.00    +0.150 HD
BRANCH  26  28
ATOM     28  CA  HIS A  13      39.531 -12.251  33.832  0.00  0.00    +0.155 C 
BRANCH  28  29
ATOM     29  C   HIS A  13      38.185 -11.764  34.329  0.00  0.00    +0.241 C 
ATOM     30  O   HIS A  13      37.660 -12.257  35.332  0.00  0.00    -0.273 OA
ATOM     31  N   VAL A  14      37.657 -10.788  33.589  0.00  0.00    -0.297 N 
ATOM     32  H   VAL A  14      38.148 -10.507  32.716  0.00  0.00    +0.150 HD
BRANCH  31  33
ATOM     33  CA  VAL A  14      36.435 -10.102  33.943  0.00  0.00    +0.149 C 
BRANCH  33  34
ATOM     34  C   VAL A  14      35.269 -11.076  33.878  0.00  0.00    +0.241 C 
ATOM     35  O   VAL A  14      34.421 -11.058  34.774  0.00  0.00    -0.273 OA
ATOM     36  N   ALA A  15      35.256 -11.931  32.849  0.00  0.00    -0.298 N 
ATOM     37  H   ALA A  15      36.039 -11.936  32.165  0.00  0.00    +0.150 HD
BRANCH  36  38
ATOM     38  CA  ALA A  15      34.107 -12.882  32.686  0.00  0.00    +0.137 C 
ATOM     39  CB  ALA A  15      34.256 -13.705  31.435  0.00  0.00    +0.030 C 
BRANCH  38  40
ATOM     40  C   ALA A  15      33.873 -13.793  33.909  0.00  0.00    +0.227 C 
ATOM     41  O   ALA A  15      32.735 -13.991  34.345  0.00  0.00    -0.286 OA
ENDBRANCH  38  40
ENDBRANCH  36  38
ENDBRANCH  33  34
BRANCH  33  42
ATOM     42  CB  VAL A  14      36.194  -8.919  32.992  0.00  0.00    +0.027 C 
ATOM     43  CG2 VAL A  14      37.208  -7.864  33.245  0.00  0.00    +0.002 C 
ATOM     44  CG1 VAL A  14      34.749  -8.329  33.082  0.00  0.00    +0.002 C 
ENDBRANCH  33  42
ENDBRANCH  31  33
ENDBRANCH  28  29
BRANCH  28  45
ATOM     45  CB  HIS A  13      40.231 -13.169  34.840  0.00  0.00    +0.076 C 
BRANCH  45  46
ATOM     46  CG  HIS A  13      41.475 -13.760  34.292  0.00  0.00    +0.082 A 
ATOM     47  CD2 HIS A  13      42.769 -13.380  34.402  0.00  0.00    +0.115 A 
ATOM     48  NE2 HIS A  13      43.509 -14.248  33.636  0.00  0.00    -0.221 NA
ATOM     49  CE1 HIS A  13      42.693 -15.100  33.040  0.00  0.00    +0.199 A 
ATOM     50  ND1 HIS A  13      41.456 -14.826  33.419  0.00  0.00    -0.227 NA
ENDBRANCH  45  46
ENDBRANCH  28  45
ENDBRANCH  26  28
ENDBRANCH  22  24
ENDBRANCH  20  22
ENDBRANCH  16  18
ENDBRANCH  14  16
ENDBRANCH  11  12
BRANCH  11  51
ATOM     51  CB  GLU A  10      40.552 -11.838  27.496  0.00  0.00    +0.041 C 
BRANCH  51  52
ATOM     52  CG  GLU A  10      39.307 -12.172  26.690  0.00  0.00    +0.116 C 
BRANCH  52  53
ATOM     53  CD  GLU A  10      39.644 -12.615  25.275  0.00  0.00    +0.365 C 
ATOM     54  OE2 GLU A  10      40.835 -12.604  24.894  0.00  0.00    -0.246 OA
ATOM     55  OE1 GLU A  10      38.726 -13.003  24.549  0.00  0.00    -0.246 OA
ENDBRANCH  52  53
ENDBRANCH  51  52
ENDBRANCH  11  51
ENDBRANCH   9  11
ENDBRANCH   6   7
BRANCH   6  56
ATOM     56  CB  TRP A   9      37.308  -7.690  29.435  0.00  0.00    +0.057 C 
BRANCH  56  57
ATOM     57  CG  TRP A   9      36.841  -6.316  29.775  0.00  0.00    -0.002 A 
ATOM     58  CD1 TRP A   9      37.593  -5.275  30.297  0.00  0.00    +0.068 A 
ATOM     59  NE1 TRP A   9      36.801  -4.183  30.498  0.00  0.00    -0.352 N 
ATOM     60  HE1 TRP A   9      37.114  -3.275  30.896  0.00  0.00    +0.166 HD
ATOM     61  CE2 TRP A   9      35.529  -4.475  30.092  0.00  0.00    +0.056 A 
ATOM     62  CZ2 TRP A   9      34.382  -3.679  30.109  0.00  0.00    +0.017 A 
ATOM     63  CH2 TRP A   9      33.192  -4.250  29.667  0.00  0.00    +0.001 A 
ATOM     64  CZ3 TRP A   9      33.141  -5.582  29.221  0.00  0.00    +0.000 A 
ATOM     65  CE3 TRP A   9      34.317  -6.366  29.193  0.00  0.00    +0.001 A 
ATOM     66  CD2 TRP A   9      35.515  -5.816  29.654  0.00  0.00    +0.013 A 
ENDBRANCH  56  57
ENDBRANCH   6  56
ENDBRANCH   4   6
ENDBRANCH   1   2
BRANCH   1  69
ATOM     67  C   HIS A   7      41.882  -7.811  26.457  0.00  0.00    +0.241 C 
ATOM     68  O   HIS A   7      42.442  -8.598  27.177  0.00  0.00    -0.273 OA
ATOM     69  N   LYS A   8      41.529  -6.572  26.827  0.00  0.00    -0.297 N 
ATOM     70  H   LYS A   8      41.090  -5.934  26.133  0.00  0.00    +0.150 HD
BRANCH  67  71
ATOM     71  CA  HIS A   7      41.596  -8.142  25.009  0.00  0.00    +0.155 C 
BRANCH  71  74
ATOM     72  C   LYS A   6      39.184  -8.173  25.223  0.00  0.00    +0.241 C 
ATOM     73  O   LYS A   6      39.284  -8.992  26.151  0.00  0.00    -0.273 OA
ATOM     74  N   HIS A   7      40.275  -7.677  24.614  0.00  0.00    -0.297 N 
ATOM     75  H   HIS A   7      40.175  -6.964  23.864  0.00  0.00    +0.150 HD
BRANCH  72  76
ATOM     76  CA  LYS A   6      37.802  -7.686  24.782  0.00  0.00    +0.149 C 
BRANCH  76  79
ATOM     77  C   THR A   5      38.079  -5.423  25.601  0.00  0.00    +0.243 C 
ATOM     78  O   THR A   5      38.461  -5.843  26.716  0.00  0.00    -0.273 OA
ATOM     79  N   LYS A   6      37.748  -6.231  24.585  0.00  0.00    -0.297 N 
ATOM     80  H   LYS A   6      37.457  -5.834  23.669  0.00  0.00    +0.150 HD
BRANCH  77  81
ATOM     81  CA  THR A   5      38.136  -3.923  25.297  0.00  0.00    +0.176 C 
BRANCH  81  84
ATOM     82  C   THR A   4      40.004  -3.977  23.772  0.00  0.00    +0.243 C 
ATOM     83  O   THR A   4      40.725  -4.548  24.597  0.00  0.00    -0.273 OA
ATOM     84  N   THR A   5      38.732  -3.663  24.003  0.00  0.00    -0.295 N 
ATOM     85  H   THR A   5      38.162  -3.228  23.250  0.00  0.00    +0.150 HD
BRANCH  82  86
ATOM     86  CA  THR A   4      40.517  -3.710  22.369  0.00  0.00    +0.176 C 
BRANCH  86  89
ATOM     87  C   GLN A   3      39.205  -5.501  21.356  0.00  0.00    +0.241 C 
ATOM     88  O   GLN A   3      39.652  -6.320  22.133  0.00  0.00    -0.273 OA
ATOM     89  N   THR A   4      39.577  -4.226  21.378  0.00  0.00    -0.295 N 
ATOM     90  H   THR A   4      39.187  -3.575  20.667  0.00  0.00    +0.150 HD
BRANCH  87  91
ATOM     91  CA  GLN A   3      38.113  -5.892  20.349  0.00  0.00    +0.149 C 
BRANCH  91  94
ATOM     92  C   ALA A   2      36.305  -4.565  21.274  0.00  0.00    +0.241 C 
ATOM     93  O   ALA A   2      36.403  -5.142  22.360  0.00  0.00    -0.273 OA
ATOM     94  N   GLN A   3      37.033  -4.900  20.195  0.00  0.00    -0.297 N 
ATOM     95  H   GLN A   3      36.838  -4.468  19.269  0.00  0.00    +0.150 HD
BRANCH  92  96
ATOM     96  CA  ALA A   2      35.396  -3.359  21.166  0.00  0.00    +0.149 C 
ATOM     97  CB  ALA A   2      34.002  -3.791  20.873  0.00  0.00    +0.031 C 
BRANCH  96 100
ATOM     98  C   ALA A   1      36.949  -1.742  20.275  0.00  0.00    +0.238 C 
ATOM     99  O   ALA A   1      37.653  -1.818  21.268  0.00  0.00    -0.274 OA
ATOM    100  N   ALA A   2      35.842  -2.436  20.133  0.00  0.00    -0.297 N 
ATOM    101  H   ALA A   2      35.275  -2.324  19.268  0.00  0.00    +0.150 HD
BRANCH  98 102
ATOM    102  CA  ALA A   1      37.324  -0.814  19.134  0.00  0.00    +0.145 C 
ATOM    103  CB  ALA A   1      36.587   0.503  19.292  0.00  0.00    +0.028 C 
BRANCH 102 104
ATOM    104  N   ALA A   1      37.109  -1.422  17.813  0.00  0.00    -0.238 NA
ATOM    105  H   ALA A   1      36.476  -0.977  17.118  0.00  0.00    +0.142 HD
ENDBRANCH 102 104
ENDBRANCH  98 102
ENDBRANCH  96 100
ENDBRANCH  92  96
ENDBRANCH  91  94
BRANCH  91 106
ATOM    106  CB  GLN A   3      38.728  -6.289  19.000  0.00  0.00    +0.039 C 
BRANCH 106 107
ATOM    107  CG  GLN A   3      37.799  -7.099  18.106  0.00  0.00    +0.087 C 
BRANCH 107 108
ATOM    108  CD  GLN A   3      37.620  -8.513  18.606  0.00  0.00    +0.219 C 
ATOM    109  OE1 GLN A   3      38.469  -9.057  19.317  0.00  0.00    -0.275 OA
ATOM    110  NE2 GLN A   3      36.523  -9.133  18.219  0.00  0.00    -0.329 N 
ATOM    111 HE21 GLN A   3      36.350 -10.115  18.513  0.00  0.00    +0.145 HD
ATOM    112 HE22 GLN A   3      35.831  -8.640  17.619  0.00  0.00    +0.145 HD
ENDBRANCH 107 108
ENDBRANCH 106 107
ENDBRANCH  91 106
ENDBRANCH  87  91
ENDBRANCH  86  89
BRANCH  86 113
ATOM    113  CB  THR A   4      40.722  -2.175  22.167  0.00  0.00    +0.137 C 
ATOM    114  CG2 THR A   4      41.705  -1.658  23.171  0.00  0.00    +0.034 C 
BRANCH 113 115
ATOM    115  OG1 THR A   4      41.198  -1.953  20.825  0.00  0.00    -0.382 OA
ATOM    116  HG1 THR A   4      41.333  -0.983  20.680  0.00  0.00    +0.210 HD
ENDBRANCH 113 115
ENDBRANCH  86 113
ENDBRANCH  82  86
ENDBRANCH  81  84
BRANCH  81 117
ATOM    117  CB  THR A   5      36.722  -3.365  25.342  0.00  0.00    +0.137 C 
ATOM    118  CG2 THR A   5      36.079  -3.678  26.673  0.00  0.00    +0.034 C 
BRANCH 117 119
ATOM    119  OG1 THR A   5      36.812  -1.950  25.257  0.00  0.00    -0.382 OA
ATOM    120  HG1 THR A   5      37.342  -1.608  26.020  0.00  0.00    +0.210 HD
ENDBRANCH 117 119
ENDBRANCH  81 117
ENDBRANCH  77  81
ENDBRANCH  76  79
BRANCH  76 121
ATOM    121  CB  LYS A   6      37.357  -8.398  23.468  0.00  0.00    +0.029 C 
BRANCH 121 122
ATOM    122  CG  LYS A   6      37.413  -9.930  23.548  0.00  0.00    +0.000 C 
BRANCH 122 123
ATOM    123  CD  LYS A   6      36.722 -10.468  22.260  0.00  0.00    -0.024 C 
BRANCH 123 124
ATOM    124  CE  LYS A   6      36.608 -11.960  22.264  0.00  0.00    -0.086 C 
BRANCH 124 125
ATOM    125  NZ  LYS A   6      37.933 -12.699  22.056  0.00  0.00    +0.380 N 
ATOM    126  HZ1 LYS A   6      38.594 -12.444  22.817  0.00  0.00    -0.089 HD
ATOM    127  HZ2 LYS A   6      37.763 -13.725  22.073  0.00  0.00    -0.089 HD
ATOM    128  HZ3 LYS A   6      38.339 -12.429  21.137  0.00  0.00    -0.089 HD
ENDBRANCH 124 125
ENDBRANCH 123 124
ENDBRANCH 122 123
ENDBRANCH 121 122
ENDBRANCH  76 121
ENDBRANCH  72  76
ENDBRANCH  71  74
BRANCH  71 129
ATOM    129  CB  HIS A   7      42.678  -7.483  24.147  0.00  0.00    +0.076 C 
BRANCH 129 130
ATOM    130  CG  HIS A   7      42.474  -7.663  22.685  0.00  0.00    +0.082 A 
ATOM    131  CD2 HIS A   7      42.006  -8.722  21.977  0.00  0.00    +0.115 A 
ATOM    132  NE2 HIS A   7      42.015  -8.358  20.650  0.00  0.00    -0.221 NA
ATOM    133  CE1 HIS A   7      42.451  -7.104  20.551  0.00  0.00    +0.199 A 
ATOM    134  ND1 HIS A   7      42.775  -6.681  21.765  0.00  0.00    -0.227 NA
ENDBRANCH 129 130
ENDBRANCH  71 129
ENDBRANCH  67  71
ENDBRANCH   1  69
BRANCH   1 135
ATOM    135  CB  LYS A   8      41.500  -4.595  28.289  0.00  0.00    +0.029 C 
BRANCH 135 136
ATOM    136  CG  LYS A   8      42.475  -3.734  27.516  0.00  0.00    +0.000 C 
BRANCH 136 137
ATOM    137  CD  LYS A   8      41.995  -2.281  27.543  0.00  0.00    -0.024 C 
BRANCH 137 138
ATOM    138  CE  LYS A   8      43.066  -1.386  26.860  0.00  0.00    -0.086 C 
BRANCH 138 139
ATOM    139  NZ  LYS A   8      42.623   0.062  26.808  0.00  0.00    +0.380 N 
ATOM    140  HZ1 LYS A   8      42.468   0.411  27.775  0.00  0.00    -0.089 HD
ATOM    141  HZ2 LYS A   8      43.360   0.632  26.346  0.00  0.00    -0.089 HD
ATOM    142  HZ3 LYS A   8      41.738   0.133  26.267  0.00  0.00    -0.089 HD
ENDBRANCH 138 139
ENDBRANCH 137 138
ENDBRANCH 136 137
ENDBRANCH 135 136
ENDBRANCH   1 135
TORSDOF 57
REMARK  Name = ../refined-set-2016/3qfd/3qfd_pocket.pdb
REMARK  314 active torsions:
REMARK  status: ('A' for Active; 'I' for Inactive)
REMARK    1  A    between atoms: _1  and  _3
REMARK    2  A    between atoms: _3  and  _4
REMARK    3  A    between atoms: _3  and  _6
REMARK    4  A    between atoms: _6  and  _7
REMARK    5  A    between atoms: _7  and  _8
REMARK    6  A    between atoms: _10  and  _12
REMARK    7  A    between atoms: _12  and  _13
REMARK    8  A    between atoms: _12  and  _15
REMARK    9  A    between atoms: _15  and  _16
REMARK   10  A    between atoms: _16  and  _17
REMARK   11  A    between atoms: _17  and  _18
REMARK   12  A    between atoms: _27  and  _29
REMARK   13  A    between atoms: _29  and  _30
REMARK   14  A    between atoms: _29  and  _32
REMARK   15  A    between atoms: _32  and  _33
REMARK   16  A    between atoms: _38  and  _39
REMARK   17  A    between atoms: _41  and  _43
REMARK   18  A    between atoms: _43  and  _44
REMARK   19  A    between atoms: _43  and  _46
REMARK   20  A    between atoms: _46  and  _47
REMARK   21  A    between atoms: _53  and  _55
REMARK   22  A    between atoms: _55  and  _56
REMARK   23  A    between atoms: _55  and  _58
REMARK   24  A    between atoms: _58  and  _59
REMARK   25  A    between atoms: _65  and  _67
REMARK   26  A    between atoms: _67  and  _68
REMARK   27  A    between atoms: _71  and  _73
REMARK   28  A    between atoms: _73  and  _74
REMARK   29  A    between atoms: _73  and  _76
REMARK   30  A    between atoms: _79  and  _81
REMARK   31  A    between atoms: _81  and  _82
REMARK   32  A    between atoms: _84  and  _86
REMARK   33  A    between atoms: _86  and  _87
REMARK   34  A    between atoms: _86  and  _89
REMARK   35  A    between atoms: _92  and  _94
REMARK   36  A    between atoms: _94  and  _95
REMARK   37  A    between atoms: _94  and  _97
REMARK   38  A    between atoms: _97  and  _98
REMARK   39  A    between atoms: _104  and  _106
REMARK   40  A    between atoms: _106  and  _107
REMARK   41  A    between atoms: _106  and  _109
REMARK   42  A    between atoms: _112  and  _114
REMARK   43  A    between atoms: _114  and  _115
REMARK   44  A    between atoms: _114  and  _117
REMARK   45  A    between atoms: _117  and  _118
REMARK   46  A    between atoms: _118  and  _119
REMARK   47  A    between atoms: _121  and  _123
REMARK   48  A    between atoms: _123  and  _124
REMARK   49  A    between atoms: _123  and  _126
REMARK   50  A    between atoms: _126  and  _127
REMARK   51  A    between atoms: _130  and  _132
REMARK   52  A    between atoms: _132  and  _133
REMARK   53  A    between atoms: _132  and  _135
REMARK   54  A    between atoms: _135  and  _136
REMARK   55  A    between atoms: _136  and  _137
REMARK   56  A    between atoms: _140  and  _142
REMARK   57  A    between atoms: _142  and  _143
REMARK   58  A    between atoms: _142  and  _145
REMARK   59  A    between atoms: _145  and  _146
REMARK   60  A    between atoms: _151  and  _152
REMARK   61  A    between atoms: _154  and  _156
REMARK   62  A    between atoms: _156  and  _157
REMARK   63  A    between atoms: _159  and  _161
REMARK   64  A    between atoms: _161  and  _162
REMARK   65  A    between atoms: _161  and  _164
REMARK   66  A    between atoms: _164  and  _165
REMARK   67  A    between atoms: _165  and  _166
REMARK   68  A    between atoms: _169  and  _171
REMARK   69  A    between atoms: _171  and  _172
REMARK   70  A    between atoms: _171  and  _174
REMARK   71  A    between atoms: _174  and  _175
REMARK   72  A    between atoms: _178  and  _180
REMARK   73  A    between atoms: _180  and  _181
REMARK   74  A    between atoms: _180  and  _183
REMARK   75  A    between atoms: _183  and  _184
REMARK   76  A    between atoms: _184  and  _185
REMARK   77  A    between atoms: _185  and  _186
REMARK   78  A    between atoms: _195  and  _197
REMARK   79  A    between atoms: _197  and  _198
REMARK   80  A    between atoms: _197  and  _200
REMARK   81  A    between atoms: _200  and  _201
REMARK   82  A    between atoms: _201  and  _202
REMARK   83  A    between atoms: _202  and  _203
REMARK   84  A    between atoms: _203  and  _204
REMARK   85  A    between atoms: _208  and  _210
REMARK   86  A    between atoms: _210  and  _211
REMARK   87  A    between atoms: _210  and  _213
REMARK   88  A    between atoms: _216  and  _218
REMARK   89  A    between atoms: _218  and  _219
REMARK   90  A    between atoms: _222  and  _224
REMARK   91  A    between atoms: _224  and  _225
REMARK   92  A    between atoms: _224  and  _227
REMARK   93  A    between atoms: _227  and  _228
REMARK   94  A    between atoms: _233  and  _235
REMARK   95  A    between atoms: _235  and  _236
REMARK   96  A    between atoms: _235  and  _238
REMARK   97  A    between atoms: _238  and  _239
REMARK   98  A    between atoms: _241  and  _243
REMARK   99  A    between atoms: _243  and  _244
REMARK  100  A    between atoms: _243  and  _246
REMARK  101  A    between atoms: _246  and  _247
REMARK  102  A    between atoms: _247  and  _248
REMARK  103  A    between atoms: _253  and  _255
REMARK  104  A    between atoms: _255  and  _256
REMARK  105  A    between atoms: _255  and  _258
REMARK  106  A    between atoms: _258  and  _259
REMARK  107  A    between atoms: _262  and  _264
REMARK  108  A    between atoms: _264  and  _265
REMARK  109  A    between atoms: _264  and  _267
REMARK  110  A    between atoms: _267  and  _268
REMARK  111  A    between atoms: _273  and  _275
REMARK  112  A    between atoms: _275  and  _276
REMARK  113  A    between atoms: _275  and  _278
REMARK  114  A    between atoms: _278  and  _279
REMARK  115  A    between atoms: _279  and  _280
REMARK  116  A    between atoms: _280  and  _281
REMARK  117  A    between atoms: _290  and  _292
REMARK  118  A    between atoms: _292  and  _293
REMARK  119  A    between atoms: _292  and  _295
REMARK  120  A    between atoms: _298  and  _300
REMARK  121  A    between atoms: _300  and  _301
REMARK  122  A    between atoms: _300  and  _303
REMARK  123  A    between atoms: _303  and  _304
REMARK  124  A    between atoms: _307  and  _309
REMARK  125  A    between atoms: _309  and  _310
REMARK  126  A    between atoms: _309  and  _312
REMARK  127  A    between atoms: _312  and  _313
REMARK  128  A    between atoms: _316  and  _318
REMARK  129  A    between atoms: _318  and  _319
REMARK  130  A    between atoms: _321  and  _323
REMARK  131  A    between atoms: _323  and  _324
REMARK  132  A    between atoms: _323  and  _326
REMARK  133  A    between atoms: _326  and  _327
REMARK  134  A    between atoms: _330  and  _332
REMARK  135  A    between atoms: _332  and  _333
REMARK  136  A    between atoms: _332  and  _335
REMARK  137  A    between atoms: _335  and  _336
REMARK  138  A    between atoms: _339  and  _341
REMARK  139  A    between atoms: _341  and  _342
REMARK  140  A    between atoms: _341  and  _344
REMARK  141  A    between atoms: _344  and  _345
REMARK  142  A    between atoms: _345  and  _346
REMARK  143  A    between atoms: _346  and  _347
REMARK  144  A    between atoms: _356  and  _358
REMARK  145  A    between atoms: _358  and  _359
REMARK  146  A    between atoms: _358  and  _361
REMARK  147  A    between atoms: _361  and  _362
REMARK  148  A    between atoms: _367  and  _368
REMARK  149  A    between atoms: _370  and  _372
REMARK  150  A    between atoms: _372  and  _373
REMARK  151  A    between atoms: _372  and  _375
REMARK  152  A    between atoms: _378  and  _380
REMARK  153  A    between atoms: _380  and  _381
REMARK  154  A    between atoms: _380  and  _383
REMARK  155  A    between atoms: _383  and  _384
REMARK  156  A    between atoms: _384  and  _385
REMARK  157  A    between atoms: _385  and  _386
REMARK  158  A    between atoms: _395  and  _397
REMARK  159  A    between atoms: _397  and  _398
REMARK  160  A    between atoms: _397  and  _400
REMARK  161  A    between atoms: _400  and  _401
REMARK  162  A    between atoms: _406  and  _407
REMARK  163  A    between atoms: _409  and  _411
REMARK  164  A    between atoms: _411  and  _412
REMARK  165  A    between atoms: _414  and  _416
REMARK  166  A    between atoms: _416  and  _417
REMARK  167  A    between atoms: _416  and  _419
REMARK  168  A    between atoms: _419  and  _420
REMARK  169  A    between atoms: _420  and  _723
REMARK  170  A    between atoms: _421  and  _423
REMARK  171  A    between atoms: _423  and  _424
REMARK  172  A    between atoms: _423  and  _426
REMARK  173  A    between atoms: _426  and  _427
REMARK  174  A    between atoms: _432  and  _434
REMARK  175  A    between atoms: _434  and  _435
REMARK  176  A    between atoms: _434  and  _437
REMARK  177  A    between atoms: _437  and  _438
REMARK  178  A    between atoms: _443  and  _444
REMARK  179  A    between atoms: _446  and  _448
REMARK  180  A    between atoms: _448  and  _449
REMARK  181  A    between atoms: _452  and  _454
REMARK  182  A    between atoms: _454  and  _455
REMARK  183  A    between atoms: _454  and  _457
REMARK  184  A    between atoms: _457  and  _458
REMARK  185  A    between atoms: _463  and  _464
REMARK  186  A    between atoms: _466  and  _468
REMARK  187  A    between atoms: _468  and  _469
REMARK  188  A    between atoms: _468  and  _471
REMARK  189  A    between atoms: _471  and  _472
REMARK  190  A    between atoms: _477  and  _478
REMARK  191  A    between atoms: _480  and  _482
REMARK  192  A    between atoms: _482  and  _483
REMARK  193  A    between atoms: _482  and  _485
REMARK  194  A    between atoms: _485  and  _486
REMARK  195  A    between atoms: _489  and  _491
REMARK  196  A    between atoms: _491  and  _492
REMARK  197  A    between atoms: _491  and  _494
REMARK  198  A    between atoms: _494  and  _495
REMARK  199  A    between atoms: _505  and  _507
REMARK  200  A    between atoms: _507  and  _508
REMARK  201  A    between atoms: _511  and  _513
REMARK  202  A    between atoms: _513  and  _514
REMARK  203  A    between atoms: _517  and  _519
REMARK  204  A    between atoms: _519  and  _520
REMARK  205  A    between atoms: _519  and  _522
REMARK  206  A    between atoms: _522  and  _523
REMARK  207  A    between atoms: _523  and  _524
REMARK  208  A    between atoms: _529  and  _531
REMARK  209  A    between atoms: _531  and  _532
REMARK  210  A    between atoms: _531  and  _534
REMARK  211  A    between atoms: _534  and  _535
REMARK  212  A    between atoms: _538  and  _540
REMARK  213  A    between atoms: _540  and  _541
REMARK  214  A    between atoms: _540  and  _543
REMARK  215  A    between atoms: _543  and  _544
REMARK  216  A    between atoms: _547  and  _549
REMARK  217  A    between atoms: _549  and  _550
REMARK  218  A    between atoms: _549  and  _552
REMARK  219  A    between atoms: _552  and  _553
REMARK  220  A    between atoms: _553  and  _554
REMARK  221  A    between atoms: _554  and  _555
REMARK  222  A    between atoms: _555  and  _556
REMARK  223  A    between atoms: _560  and  _562
REMARK  224  A    between atoms: _562  and  _563
REMARK  225  A    between atoms: _562  and  _565
REMARK  226  A    between atoms: _565  and  _566
REMARK  227  A    between atoms: _571  and  _573
REMARK  228  A    between atoms: _573  and  _574
REMARK  229  A    between atoms: _573  and  _576
REMARK  230  A    between atoms: _576  and  _577
REMARK  231  A    between atoms: _577  and  _578
REMARK  232  A    between atoms: _578  and  _579
REMARK  233  A    between atoms: _579  and  _580
REMARK  234  A    between atoms: _584  and  _586
REMARK  235  A    between atoms: _586  and  _587
REMARK  236  A    between atoms: _586  and  _589
REMARK  237  A    between atoms: _589  and  _590
REMARK  238  A    between atoms: _600  and  _602
REMARK  239  A    between atoms: _602  and  _603
REMARK  240  A    between atoms: _602  and  _605
REMARK  241  A    between atoms: _605  and  _606
REMARK  242  A    between atoms: _606  and  _607
REMARK  243  A    between atoms: _610  and  _612
REMARK  244  A    between atoms: _612  and  _613
REMARK  245  A    between atoms: _616  and  _618
REMARK  246  A    between atoms: _618  and  _619
REMARK  247  A    between atoms: _622  and  _624
REMARK  248  A    between atoms: _624  and  _625
REMARK  249  A    between atoms: _624  and  _627
REMARK  250  A    between atoms: _627  and  _628
REMARK  251  A    between atoms: _633  and  _635
REMARK  252  A    between atoms: _635  and  _636
REMARK  253  A    between atoms: _635  and  _638
REMARK  254  A    between atoms: _641  and  _643
REMARK  255  A    between atoms: _643  and  _644
REMARK  256  A    between atoms: _647  and  _649
REMARK  257  A    between atoms: _649  and  _650
REMARK  258  A    between atoms: _649  and  _652
REMARK  259  A    between atoms: _652  and  _653
REMARK  260  A    between atoms: _653  and  _654
REMARK  261  A    between atoms: _659  and  _661
REMARK  262  A    between atoms: _661  and  _662
REMARK  263  A    between atoms: _661  and  _664
REMARK  264  A    between atoms: _664  and  _665
REMARK  265  A    between atoms: _668  and  _670
REMARK  266  A    between atoms: _670  and  _671
REMARK  267  A    between atoms: _670  and  _673
REMARK  268  A    between atoms: _673  and  _674
REMARK  269  A    between atoms: _674  and  _675
REMARK  270  A    between atoms: _675  and  _676
REMARK  271  A    between atoms: _685  and  _687
REMARK  272  A    between atoms: _687  and  _688
REMARK  273  A    between atoms: _687  and  _690
REMARK  274  A    between atoms: _690  and  _691
REMARK  275  A    between atoms: _696  and  _697
REMARK  276  A    between atoms: _699  and  _701
REMARK  277  A    between atoms: _701  and  _702
REMARK  278  A    between atoms: _701  and  _704
REMARK  279  A    between atoms: _704  and  _705
REMARK  280  A    between atoms: _708  and  _710
REMARK  281  A    between atoms: _710  and  _711
REMARK  282  A    between atoms: _710  and  _713
REMARK  283  A    between atoms: _713  and  _714
REMARK  284  A    between atoms: _717  and  _719
REMARK  285  A    between atoms: _719  and  _720
REMARK  286  A    between atoms: _719  and  _722
REMARK  287  A    between atoms: _722  and  _723
REMARK  288  A    between atoms: _724  and  _726
REMARK  289  A    between atoms: _726  and  _727
REMARK  290  A    between atoms: _726  and  _729
REMARK  291  A    between atoms: _732  and  _734
REMARK  292  A    between atoms: _734  and  _735
REMARK  293  A    between atoms: _734  and  _737
REMARK  294  A    between atoms: _737  and  _738
REMARK  295  A    between atoms: _738  and  _739
REMARK  296  A    between atoms: _742  and  _744
REMARK  297  A    between atoms: _744  and  _745
REMARK  298  A    between atoms: _744  and  _747
REMARK  299  A    between atoms: _747  and  _748
REMARK  300  A    between atoms: _758  and  _760
REMARK  301  A    between atoms: _760  and  _761
REMARK  302  A    between atoms: _760  and  _763
REMARK  303  A    between atoms: _763  and  _764
REMARK  304  A    between atoms: _767  and  _769
REMARK  305  A    between atoms: _769  and  _770
REMARK  306  A    between atoms: _769  and  _772
REMARK  307  A    between atoms: _772  and  _773
REMARK  308  A    between atoms: _773  and  _774
REMARK  309  A    between atoms: _774  and  _775
REMARK  310  A    between atoms: _784  and  _786
REMARK  311  A    between atoms: _786  and  _787
REMARK  312  A    between atoms: _786  and  _789
REMARK  313  A    between atoms: _789  and  _790
REMARK  314  A    between atoms: _795  and  _796
REMARK                            x       y       z     vdW  Elec       q    Type
REMARK                         _______ _______ _______ _____ _____    ______ ____
ROOT
ATOM      1  CA  LEU A   2      30.641 -11.691  36.143  0.00  0.00    +0.149 C 
ENDROOT
BRANCH   1   4
ATOM      2  C   GLN A   1      32.267 -12.263  37.831  0.00  0.00    +0.238 C 
ATOM      3  O   GLN A   1      31.381 -12.363  38.693  0.00  0.00    -0.274 OA
ATOM      4  N   LEU A   2      32.023 -11.914  36.573  0.00  0.00    -0.297 N 
ATOM      5  H   LEU A   2      32.807 -11.800  35.899  0.00  0.00    +0.150 HD
BRANCH   2   6
ATOM      6  CA  GLN A   1      33.746 -12.514  38.159  0.00  0.00    +0.145 C 
BRANCH   6   7
ATOM      7  N   GLN A   1      34.360 -13.241  37.080  0.00  0.00    -0.238 NA
ATOM      8  H   GLN A   1      35.018 -12.743  36.447  0.00  0.00    +0.142 HD
ENDBRANCH   6   7
BRANCH   6   9
ATOM      9  CB  GLN A   1      34.448 -11.162  38.305  0.00  0.00    +0.036 C 
BRANCH   9  10
ATOM     10  CG  GLN A   1      35.970 -11.254  38.467  0.00  0.00    +0.087 C 
BRANCH  10  11
ATOM     11  CD  GLN A   1      36.583  -9.893  38.796  0.00  0.00    +0.219 C 
ATOM     12  OE1 GLN A   1      36.236  -9.270  39.807  0.00  0.00    -0.275 OA
ATOM     13  NE2 GLN A   1      37.478  -9.422  37.938  0.00  0.00    -0.329 N 
ATOM     14 HE21 GLN A   1      37.918  -8.494  38.103  0.00  0.00    +0.145 HD
ATOM     15 HE22 GLN A   1      37.740  -9.981  37.101  0.00  0.00    +0.145 HD
ENDBRANCH  10  11
ENDBRANCH   9  10
ENDBRANCH   6   9
ENDBRANCH   2   6
ENDBRANCH   1   4
BRANCH   1  16
ATOM     16  C   LEU A   2      29.816 -12.979  36.222  0.00  0.00    +0.241 C 
ATOM     17  O   LEU A   2      28.683 -12.940  36.669  0.00  0.00    -0.273 OA
ATOM     18  N   ARG A   3      30.388 -14.084  35.757  0.00  0.00    -0.298 N 
ATOM     19  H   ARG A   3      31.337 -14.021  35.337  0.00  0.00    +0.150 HD
BRANCH  18  20
ATOM     20  CA  ARG A   3      29.725 -15.389  35.817  0.00  0.00    +0.137 C 
BRANCH  20  21
ATOM     21  C   ARG A   3      29.332 -15.767  37.241  0.00  0.00    +0.227 C 
ATOM     22  O   ARG A   3      28.195 -16.174  37.473  0.00  0.00    -0.286 OA
ENDBRANCH  20  21
BRANCH  20  23
ATOM     23  CB  ARG A   3      30.613 -16.472  35.197  0.00  0.00    +0.031 C 
BRANCH  23  24
ATOM     24  CG  ARG A   3      29.993 -17.869  35.151  0.00  0.00    +0.045 C 
BRANCH  24  25
ATOM     25  CD  ARG A   3      30.989 -18.859  34.504  0.00  0.00    +0.174 C 
BRANCH  25  26
ATOM     26  NE  ARG A   3      32.016 -19.294  35.444  0.00  0.00    -0.265 N 
ATOM     27  HE  ARG A   3      31.708 -19.523  36.410  0.00  0.00    +0.259 HD
ATOM     28  CZ  ARG A   3      33.318 -19.424  35.173  0.00  0.00    +0.342 C 
ATOM     29  NH2 ARG A   3      34.153 -19.853  36.116  0.00  0.00    -0.292 N 
ATOM     30 HH21 ARG A   3      33.792 -20.087  37.063  0.00  0.00    +0.255 HD
ATOM     31 HH22 ARG A   3      35.167 -19.955  35.906  0.00  0.00    +0.255 HD
ATOM     32  NH1 ARG A   3      33.806 -19.103  33.980  0.00  0.00    -0.292 N 
ATOM     33 HH11 ARG A   3      34.822 -19.211  33.788  0.00  0.00    +0.255 HD
ATOM     34 HH12 ARG A   3      33.172 -18.744  33.238  0.00  0.00    +0.255 HD
ENDBRANCH  25  26
ENDBRANCH  24  25
ENDBRANCH  23  24
ENDBRANCH  20  23
ENDBRANCH  18  20
ENDBRANCH   1  16
BRANCH   1  35
ATOM     35  CB  LEU A   2      30.627 -11.202  34.718  0.00  0.00    +0.029 C 
BRANCH  35  36
ATOM     36  CG  LEU A   2      30.672  -9.697  34.524  0.00  0.00    +0.002 C 
ATOM     37  CD2 LEU A   2      31.170  -8.782  35.623  0.00  0.00    +0.000 C 
ATOM     38  CD1 LEU A   2      31.098  -9.326  33.128  0.00  0.00    +0.000 C 
ENDBRANCH  35  36
ENDBRANCH   1  35
TORSDOF 15
REMARK  Name = ../refined-set-2016/3qfd/3qfd_pocket.pdb
REMARK  314 active torsions:
REMARK  status: ('A' for Active; 'I' for Inactive)
REMARK    1  A    between atoms: _1  and  _3
REMARK    2  A    between atoms: _3  and  _4
REMARK    3  A    between atoms: _3  and  _6
REMARK    4  A    between atoms: _6  and  _7
REMARK    5  A    between atoms: _7  and  _8
REMARK    6  A    between atoms: _10  and  _12
REMARK    7  A    between atoms: _12  and  _13
REMARK    8  A    between atoms: _12  and  _15
REMARK    9  A    between atoms: _15  and  _16
REMARK   10  A    between atoms: _16  and  _17
REMARK   11  A    between atoms: _17  and  _18
REMARK   12  A    between atoms: _27  and  _29
REMARK   13  A    between atoms: _29  and  _30
REMARK   14  A    between atoms: _29  and  _32
REMARK   15  A    between atoms: _32  and  _33
REMARK   16  A    between atoms: _38  and  _39
REMARK   17  A    between atoms: _41  and  _43
REMARK   18  A    between atoms: _43  and  _44
REMARK   19  A    between atoms: _43  and  _46
REMARK   20  A    between atoms: _46  and  _47
REMARK   21  A    between atoms: _53  and  _55
REMARK   22  A    between atoms: _55  and  _56
REMARK   23  A    between atoms: _55  and  _58
REMARK   24  A    between atoms: _58  and  _59
REMARK   25  A    between atoms: _65  and  _67
REMARK   26  A    between atoms: _67  and  _68
REMARK   27  A    between atoms: _71  and  _73
REMARK   28  A    between atoms: _73  and  _74
REMARK   29  A    between atoms: _73  and  _76
REMARK   30  A    between atoms: _79  and  _81
REMARK   31  A    between atoms: _81  and  _82
REMARK   32  A    between atoms: _84  and  _86
REMARK   33  A    between atoms: _86  and  _87
REMARK   34  A    between atoms: _86  and  _89
REMARK   35  A    between atoms: _92  and  _94
REMARK   36  A    between atoms: _94  and  _95
REMARK   37  A    between atoms: _94  and  _97
REMARK   38  A    between atoms: _97  and  _98
REMARK   39  A    between atoms: _104  and  _106
REMARK   40  A    between atoms: _106  and  _107
REMARK   41  A    between atoms: _106  and  _109
REMARK   42  A    between atoms: _112  and  _114
REMARK   43  A    between atoms: _114  and  _115
REMARK   44  A    between atoms: _114  and  _117
REMARK   45  A    between atoms: _117  and  _118
REMARK   46  A    between atoms: _118  and  _119
REMARK   47  A    between atoms: _121  and  _123
REMARK   48  A    between atoms: _123  and  _124
REMARK   49  A    between atoms: _123  and  _126
REMARK   50  A    between atoms: _126  and  _127
REMARK   51  A    between atoms: _130  and  _132
REMARK   52  A    between atoms: _132  and  _133
REMARK   53  A    between atoms: _132  and  _135
REMARK   54  A    between atoms: _135  and  _136
REMARK   55  A    between atoms: _136  and  _137
REMARK   56  A    between atoms: _140  and  _142
REMARK   57  A    between atoms: _142  and  _143
REMARK   58  A    between atoms: _142  and  _145
REMARK   59  A    between atoms: _145  and  _146
REMARK   60  A    between atoms: _151  and  _152
REMARK   61  A    between atoms: _154  and  _156
REMARK   62  A    between atoms: _156  and  _157
REMARK   63  A    between atoms: _159  and  _161
REMARK   64  A    between atoms: _161  and  _162
REMARK   65  A    between atoms: _161  and  _164
REMARK   66  A    between atoms: _164  and  _165
REMARK   67  A    between atoms: _165  and  _166
REMARK   68  A    between atoms: _169  and  _171
REMARK   69  A    between atoms: _171  and  _172
REMARK   70  A    between atoms: _171  and  _174
REMARK   71  A    between atoms: _174  and  _175
REMARK   72  A    between atoms: _178  and  _180
REMARK   73  A    between atoms: _180  and  _181
REMARK   74  A    between atoms: _180  and  _183
REMARK   75  A    between atoms: _183  and  _184
REMARK   76  A    between atoms: _184  and  _185
REMARK   77  A    between atoms: _185  and  _186
REMARK   78  A    between atoms: _195  and  _197
REMARK   79  A    between atoms: _197  and  _198
REMARK   80  A    between atoms: _197  and  _200
REMARK   81  A    between atoms: _200  and  _201
REMARK   82  A    between atoms: _201  and  _202
REMARK   83  A    between atoms: _202  and  _203
REMARK   84  A    between atoms: _203  and  _204
REMARK   85  A    between atoms: _208  and  _210
REMARK   86  A    between atoms: _210  and  _211
REMARK   87  A    between atoms: _210  and  _213
REMARK   88  A    between atoms: _216  and  _218
REMARK   89  A    between atoms: _218  and  _219
REMARK   90  A    between atoms: _222  and  _224
REMARK   91  A    between atoms: _224  and  _225
REMARK   92  A    between atoms: _224  and  _227
REMARK   93  A    between atoms: _227  and  _228
REMARK   94  A    between atoms: _233  and  _235
REMARK   95  A    between atoms: _235  and  _236
REMARK   96  A    between atoms: _235  and  _238
REMARK   97  A    between atoms: _238  and  _239
REMARK   98  A    between atoms: _241  and  _243
REMARK   99  A    between atoms: _243  and  _244
REMARK  100  A    between atoms: _243  and  _246
REMARK  101  A    between atoms: _246  and  _247
REMARK  102  A    between atoms: _247  and  _248
REMARK  103  A    between atoms: _253  and  _255
REMARK  104  A    between atoms: _255  and  _256
REMARK  105  A    between atoms: _255  and  _258
REMARK  106  A    between atoms: _258  and  _259
REMARK  107  A    between atoms: _262  and  _264
REMARK  108  A    between atoms: _264  and  _265
REMARK  109  A    between atoms: _264  and  _267
REMARK  110  A    between atoms: _267  and  _268
REMARK  111  A    between atoms: _273  and  _275
REMARK  112  A    between atoms: _275  and  _276
REMARK  113  A    between atoms: _275  and  _278
REMARK  114  A    between atoms: _278  and  _279
REMARK  115  A    between atoms: _279  and  _280
REMARK  116  A    between atoms: _280  and  _281
REMARK  117  A    between atoms: _290  and  _292
REMARK  118  A    between atoms: _292  and  _293
REMARK  119  A    between atoms: _292  and  _295
REMARK  120  A    between atoms: _298  and  _300
REMARK  121  A    between atoms: _300  and  _301
REMARK  122  A    between atoms: _300  and  _303
REMARK  123  A    between atoms: _303  and  _304
REMARK  124  A    between atoms: _307  and  _309
REMARK  125  A    between atoms: _309  and  _310
REMARK  126  A    between atoms: _309  and  _312
REMARK  127  A    between atoms: _312  and  _313
REMARK  128  A    between atoms: _316  and  _318
REMARK  129  A    between atoms: _318  and  _319
REMARK  130  A    between atoms: _321  and  _323
REMARK  131  A    between atoms: _323  and  _324
REMARK  132  A    between atoms: _323  and  _326
REMARK  133  A    between atoms: _326  and  _327
REMARK  134  A    between atoms: _330  and  _332
REMARK  135  A    between atoms: _332  and  _333
REMARK  136  A    between atoms: _332  and  _335
REMARK  137  A    between atoms: _335  and  _336
REMARK  138  A    between atoms: _339  and  _341
REMARK  139  A    between atoms: _341  and  _342
REMARK  140  A    between atoms: _341  and  _344
REMARK  141  A    between atoms: _344  and  _345
REMARK  142  A    between atoms: _345  and  _346
REMARK  143  A    between atoms: _346  and  _347
REMARK  144  A    between atoms: _356  and  _358
REMARK  145  A    between atoms: _358  and  _359
REMARK  146  A    between atoms: _358  and  _361
REMARK  147  A    between atoms: _361  and  _362
REMARK  148  A    between atoms: _367  and  _368
REMARK  149  A    between atoms: _370  and  _372
REMARK  150  A    between atoms: _372  and  _373
REMARK  151  A    between atoms: _372  and  _375
REMARK  152  A    between atoms: _378  and  _380
REMARK  153  A    between atoms: _380  and  _381
REMARK  154  A    between atoms: _380  and  _383
REMARK  155  A    between atoms: _383  and  _384
REMARK  156  A    between atoms: _384  and  _385
REMARK  157  A    between atoms: _385  and  _386
REMARK  158  A    between atoms: _395  and  _397
REMARK  159  A    between atoms: _397  and  _398
REMARK  160  A    between atoms: _397  and  _400
REMARK  161  A    between atoms: _400  and  _401
REMARK  162  A    between atoms: _406  and  _407
REMARK  163  A    between atoms: _409  and  _411
REMARK  164  A    between atoms: _411  and  _412
REMARK  165  A    between atoms: _414  and  _416
REMARK  166  A    between atoms: _416  and  _417
REMARK  167  A    between atoms: _416  and  _419
REMARK  168  A    between atoms: _419  and  _420
REMARK  169  A    between atoms: _420  and  _723
REMARK  170  A    between atoms: _421  and  _423
REMARK  171  A    between atoms: _423  and  _424
REMARK  172  A    between atoms: _423  and  _426
REMARK  173  A    between atoms: _426  and  _427
REMARK  174  A    between atoms: _432  and  _434
REMARK  175  A    between atoms: _434  and  _435
REMARK  176  A    between atoms: _434  and  _437
REMARK  177  A    between atoms: _437  and  _438
REMARK  178  A    between atoms: _443  and  _444
REMARK  179  A    between atoms: _446  and  _448
REMARK  180  A    between atoms: _448  and  _449
REMARK  181  A    between atoms: _452  and  _454
REMARK  182  A    between atoms: _454  and  _455
REMARK  183  A    between atoms: _454  and  _457
REMARK  184  A    between atoms: _457  and  _458
REMARK  185  A    between atoms: _463  and  _464
REMARK  186  A    between atoms: _466  and  _468
REMARK  187  A    between atoms: _468  and  _469
REMARK  188  A    between atoms: _468  and  _471
REMARK  189  A    between atoms: _471  and  _472
REMARK  190  A    between atoms: _477  and  _478
REMARK  191  A    between atoms: _480  and  _482
REMARK  192  A    between atoms: _482  and  _483
REMARK  193  A    between atoms: _482  and  _485
REMARK  194  A    between atoms: _485  and  _486
REMARK  195  A    between atoms: _489  and  _491
REMARK  196  A    between atoms: _491  and  _492
REMARK  197  A    between atoms: _491  and  _494
REMARK  198  A    between atoms: _494  and  _495
REMARK  199  A    between atoms: _505  and  _507
REMARK  200  A    between atoms: _507  and  _508
REMARK  201  A    between atoms: _511  and  _513
REMARK  202  A    between atoms: _513  and  _514
REMARK  203  A    between atoms: _517  and  _519
REMARK  204  A    between atoms: _519  and  _520
REMARK  205  A    between atoms: _519  and  _522
REMARK  206  A    between atoms: _522  and  _523
REMARK  207  A    between atoms: _523  and  _524
REMARK  208  A    between atoms: _529  and  _531
REMARK  209  A    between atoms: _531  and  _532
REMARK  210  A    between atoms: _531  and  _534
REMARK  211  A    between atoms: _534  and  _535
REMARK  212  A    between atoms: _538  and  _540
REMARK  213  A    between atoms: _540  and  _541
REMARK  214  A    between atoms: _540  and  _543
REMARK  215  A    between atoms: _543  and  _544
REMARK  216  A    between atoms: _547  and  _549
REMARK  217  A    between atoms: _549  and  _550
REMARK  218  A    between atoms: _549  and  _552
REMARK  219  A    between atoms: _552  and  _553
REMARK  220  A    between atoms: _553  and  _554
REMARK  221  A    between atoms: _554  and  _555
REMARK  222  A    between atoms: _555  and  _556
REMARK  223  A    between atoms: _560  and  _562
REMARK  224  A    between atoms: _562  and  _563
REMARK  225  A    between atoms: _562  and  _565
REMARK  226  A    between atoms: _565  and  _566
REMARK  227  A    between atoms: _571  and  _573
REMARK  228  A    between atoms: _573  and  _574
REMARK  229  A    between atoms: _573  and  _576
REMARK  230  A    between atoms: _576  and  _577
REMARK  231  A    between atoms: _577  and  _578
REMARK  232  A    between atoms: _578  and  _579
REMARK  233  A    between atoms: _579  and  _580
REMARK  234  A    between atoms: _584  and  _586
REMARK  235  A    between atoms: _586  and  _587
REMARK  236  A    between atoms: _586  and  _589
REMARK  237  A    between atoms: _589  and  _590
REMARK  238  A    between atoms: _600  and  _602
REMARK  239  A    between atoms: _602  and  _603
REMARK  240  A    between atoms: _602  and  _605
REMARK  241  A    between atoms: _605  and  _606
REMARK  242  A    between atoms: _606  and  _607
REMARK  243  A    between atoms: _610  and  _612
REMARK  244  A    between atoms: _612  and  _613
REMARK  245  A    between atoms: _616  and  _618
REMARK  246  A    between atoms: _618  and  _619
REMARK  247  A    between atoms: _622  and  _624
REMARK  248  A    between atoms: _624  and  _625
REMARK  249  A    between atoms: _624  and  _627
REMARK  250  A    between atoms: _627  and  _628
REMARK  251  A    between atoms: _633  and  _635
REMARK  252  A    between atoms: _635  and  _636
REMARK  253  A    between atoms: _635  and  _638
REMARK  254  A    between atoms: _641  and  _643
REMARK  255  A    between atoms: _643  and  _644
REMARK  256  A    between atoms: _647  and  _649
REMARK  257  A    between atoms: _649  and  _650
REMARK  258  A    between atoms: _649  and  _652
REMARK  259  A    between atoms: _652  and  _653
REMARK  260  A    between atoms: _653  and  _654
REMARK  261  A    between atoms: _659  and  _661
REMARK  262  A    between atoms: _661  and  _662
REMARK  263  A    between atoms: _661  and  _664
REMARK  264  A    between atoms: _664  and  _665
REMARK  265  A    between atoms: _668  and  _670
REMARK  266  A    between atoms: _670  and  _671
REMARK  267  A    between atoms: _670  and  _673
REMARK  268  A    between atoms: _673  and  _674
REMARK  269  A    between atoms: _674  and  _675
REMARK  270  A    between atoms: _675  and  _676
REMARK  271  A    between atoms: _685  and  _687
REMARK  272  A    between atoms: _687  and  _688
REMARK  273  A    between atoms: _687  and  _690
REMARK  274  A    between atoms: _690  and  _691
REMARK  275  A    between atoms: _696  and  _697
REMARK  276  A    between atoms: _699  and  _701
REMARK  277  A    between atoms: _701  and  _702
REMARK  278  A    between atoms: _701  and  _704
REMARK  279  A    between atoms: _704  and  _705
REMARK  280  A    between atoms: _708  and  _710
REMARK  281  A    between atoms: _710  and  _711
REMARK  282  A    between atoms: _710  and  _713
REMARK  283  A    between atoms: _713  and  _714
REMARK  284  A    between atoms: _717  and  _719
REMARK  285  A    between atoms: _719  and  _720
REMARK  286  A    between atoms: _719  and  _722
REMARK  287  A    between atoms: _722  and  _723
REMARK  288  A    between atoms: _724  and  _726
REMARK  289  A    between atoms: _726  and  _727
REMARK  290  A    between atoms: _726  and  _729
REMARK  291  A    between atoms: _732  and  _734
REMARK  292  A    between atoms: _734  and  _735
REMARK  293  A    between atoms: _734  and  _737
REMARK  294  A    between atoms: _737  and  _738
REMARK  295  A    between atoms: _738  and  _739
REMARK  296  A    between atoms: _742  and  _744
REMARK  297  A    between atoms: _744  and  _745
REMARK  298  A    between atoms: _744  and  _747
REMARK  299  A    between atoms: _747  and  _748
REMARK  300  A    between atoms: _758  and  _760
REMARK  301  A    between atoms: _760  and  _761
REMARK  302  A    between atoms: _760  and  _763
REMARK  303  A    between atoms: _763  and  _764
REMARK  304  A    between atoms: _767  and  _769
REMARK  305  A    between atoms: _769  and  _770
REMARK  306  A    between atoms: _769  and  _772
REMARK  307  A    between atoms: _772  and  _773
REMARK  308  A    between atoms: _773  and  _774
REMARK  309  A    between atoms: _774  and  _775
REMARK  310  A    between atoms: _784  and  _786
REMARK  311  A    between atoms: _786  and  _787
REMARK  312  A    between atoms: _786  and  _789
REMARK  313  A    between atoms: _789  and  _790
REMARK  314  A    between atoms: _795  and  _796
REMARK                            x       y       z     vdW  Elec       q    Type
REMARK                         _______ _______ _______ _____ _____    ______ ____
ROOT
ATOM      1  CA  TYR A   1      27.500 -13.033  40.020  0.00  0.00    +0.149 C 
ENDROOT
BRANCH   1   2
ATOM      2  C   TYR A   1      26.221 -13.539  39.356  0.00  0.00    +0.239 C 
ATOM      3  O   TYR A   1      25.234 -13.852  40.044  0.00  0.00    -0.274 OA
ATOM      4  N   LEU A   2      26.229 -13.579  38.028  0.00  0.00    -0.298 N 
ATOM      5  H   LEU A   2      27.107 -13.344  37.523  0.00  0.00    +0.150 HD
BRANCH   4   6
ATOM      6  CA  LEU A   2      25.038 -13.944  37.250  0.00  0.00    +0.137 C 
BRANCH   6   7
ATOM      7  C   LEU A   2      24.458 -15.309  37.591  0.00  0.00    +0.227 C 
ATOM      8  O   LEU A   2      23.233 -15.423  37.698  0.00  0.00    -0.286 OA
ENDBRANCH   6   7
BRANCH   6   9
ATOM      9  CB  LEU A   2      25.301 -13.832  35.741  0.00  0.00    +0.028 C 
BRANCH   9  10
ATOM     10  CG  LEU A   2      25.698 -12.394  35.396  0.00  0.00    +0.002 C 
ATOM     11  CD2 LEU A   2      24.474 -11.503  35.366  0.00  0.00    +0.000 C 
ATOM     12  CD1 LEU A   2      26.431 -12.407  34.013  0.00  0.00    +0.000 C 
ENDBRANCH   9  10
ENDBRANCH   6   9
ENDBRANCH   4   6
ENDBRANCH   1   2
BRANCH   1  13
ATOM     13  N   TYR A   1      28.669 -13.835  39.714  0.00  0.00    -0.238 NA
ATOM     14  H   TYR A   1      29.446 -13.416  39.165  0.00  0.00    +0.142 HD
ENDBRANCH   1  13
BRANCH   1  15
ATOM     15  CB  TYR A   1      27.737 -11.551  39.675  0.00  0.00    +0.053 C 
BRANCH  15  16
ATOM     16  CG  TYR A   1      26.498 -10.667  39.800  0.00  0.00    -0.020 A 
ATOM     17  CD2 TYR A   1      26.035 -10.234  41.045  0.00  0.00    -0.001 A 
ATOM     18  CE2 TYR A   1      24.906  -9.418  41.139  0.00  0.00    +0.036 A 
ATOM     19  CZ  TYR A   1      24.256  -9.025  39.985  0.00  0.00    +0.134 A 
ATOM     20  CE1 TYR A   1      24.716  -9.453  38.742  0.00  0.00    +0.036 A 
ATOM     21  CD1 TYR A   1      25.822 -10.230  38.670  0.00  0.00    -0.001 A 
BRANCH  19  22
ATOM     22  OH  TYR A   1      23.163  -8.220  40.000  0.00  0.00    -0.506 OA
ATOM     23  HH  TYR A   1      22.939  -7.987  40.936  0.00  0.00    +0.292 HD
ENDBRANCH  19  22
ENDBRANCH  15  16
ENDBRANCH   1  15
TORSDOF 9
REMARK  Name = ../refined-set-2016/3qfd/3qfd_pocket.pdb
REMARK  314 active torsions:
REMARK  status: ('A' for Active; 'I' for Inactive)
REMARK    1  A    between atoms: _1  and  _3
REMARK    2  A    between atoms: _3  and  _4
REMARK    3  A    between atoms: _3  and  _6
REMARK    4  A    between atoms: _6  and  _7
REMARK    5  A    between atoms: _7  and  _8
REMARK    6  A    between atoms: _10  and  _12
REMARK    7  A    between atoms: _12  and  _13
REMARK    8  A    between atoms: _12  and  _15
REMARK    9  A    between atoms: _15  and  _16
REMARK   10  A    between atoms: _16  and  _17
REMARK   11  A    between atoms: _17  and  _18
REMARK   12  A    between atoms: _27  and  _29
REMARK   13  A    between atoms: _29  and  _30
REMARK   14  A    between atoms: _29  and  _32
REMARK   15  A    between atoms: _32  and  _33
REMARK   16  A    between atoms: _38  and  _39
REMARK   17  A    between atoms: _41  and  _43
REMARK   18  A    between atoms: _43  and  _44
REMARK   19  A    between atoms: _43  and  _46
REMARK   20  A    between atoms: _46  and  _47
REMARK   21  A    between atoms: _53  and  _55
REMARK   22  A    between atoms: _55  and  _56
REMARK   23  A    between atoms: _55  and  _58
REMARK   24  A    between atoms: _58  and  _59
REMARK   25  A    between atoms: _65  and  _67
REMARK   26  A    between atoms: _67  and  _68
REMARK   27  A    between atoms: _71  and  _73
REMARK   28  A    between atoms: _73  and  _74
REMARK   29  A    between atoms: _73  and  _76
REMARK   30  A    between atoms: _79  and  _81
REMARK   31  A    between atoms: _81  and  _82
REMARK   32  A    between atoms: _84  and  _86
REMARK   33  A    between atoms: _86  and  _87
REMARK   34  A    between atoms: _86  and  _89
REMARK   35  A    between atoms: _92  and  _94
REMARK   36  A    between atoms: _94  and  _95
REMARK   37  A    between atoms: _94  and  _97
REMARK   38  A    between atoms: _97  and  _98
REMARK   39  A    between atoms: _104  and  _106
REMARK   40  A    between atoms: _106  and  _107
REMARK   41  A    between atoms: _106  and  _109
REMARK   42  A    between atoms: _112  and  _114
REMARK   43  A    between atoms: _114  and  _115
REMARK   44  A    between atoms: _114  and  _117
REMARK   45  A    between atoms: _117  and  _118
REMARK   46  A    between atoms: _118  and  _119
REMARK   47  A    between atoms: _121  and  _123
REMARK   48  A    between atoms: _123  and  _124
REMARK   49  A    between atoms: _123  and  _126
REMARK   50  A    between atoms: _126  and  _127
REMARK   51  A    between atoms: _130  and  _132
REMARK   52  A    between atoms: _132  and  _133
REMARK   53  A    between atoms: _132  and  _135
REMARK   54  A    between atoms: _135  and  _136
REMARK   55  A    between atoms: _136  and  _137
REMARK   56  A    between atoms: _140  and  _142
REMARK   57  A    between atoms: _142  and  _143
REMARK   58  A    between atoms: _142  and  _145
REMARK   59  A    between atoms: _145  and  _146
REMARK   60  A    between atoms: _151  and  _152
REMARK   61  A    between atoms: _154  and  _156
REMARK   62  A    between atoms: _156  and  _157
REMARK   63  A    between atoms: _159  and  _161
REMARK   64  A    between atoms: _161  and  _162
REMARK   65  A    between atoms: _161  and  _164
REMARK   66  A    between atoms: _164  and  _165
REMARK   67  A    between atoms: _165  and  _166
REMARK   68  A    between atoms: _169  and  _171
REMARK   69  A    between atoms: _171  and  _172
REMARK   70  A    between atoms: _171  and  _174
REMARK   71  A    between atoms: _174  and  _175
REMARK   72  A    between atoms: _178  and  _180
REMARK   73  A    between atoms: _180  and  _181
REMARK   74  A    between atoms: _180  and  _183
REMARK   75  A    between atoms: _183  and  _184
REMARK   76  A    between atoms: _184  and  _185
REMARK   77  A    between atoms: _185  and  _186
REMARK   78  A    between atoms: _195  and  _197
REMARK   79  A    between atoms: _197  and  _198
REMARK   80  A    between atoms: _197  and  _200
REMARK   81  A    between atoms: _200  and  _201
REMARK   82  A    between atoms: _201  and  _202
REMARK   83  A    between atoms: _202  and  _203
REMARK   84  A    between atoms: _203  and  _204
REMARK   85  A    between atoms: _208  and  _210
REMARK   86  A    between atoms: _210  and  _211
REMARK   87  A    between atoms: _210  and  _213
REMARK   88  A    between atoms: _216  and  _218
REMARK   89  A    between atoms: _218  and  _219
REMARK   90  A    between atoms: _222  and  _224
REMARK   91  A    between atoms: _224  and  _225
REMARK   92  A    between atoms: _224  and  _227
REMARK   93  A    between atoms: _227  and  _228
REMARK   94  A    between atoms: _233  and  _235
REMARK   95  A    between atoms: _235  and  _236
REMARK   96  A    between atoms: _235  and  _238
REMARK   97  A    between atoms: _238  and  _239
REMARK   98  A    between atoms: _241  and  _243
REMARK   99  A    between atoms: _243  and  _244
REMARK  100  A    between atoms: _243  and  _246
REMARK  101  A    between atoms: _246  and  _247
REMARK  102  A    between atoms: _247  and  _248
REMARK  103  A    between atoms: _253  and  _255
REMARK  104  A    between atoms: _255  and  _256
REMARK  105  A    between atoms: _255  and  _258
REMARK  106  A    between atoms: _258  and  _259
REMARK  107  A    between atoms: _262  and  _264
REMARK  108  A    between atoms: _264  and  _265
REMARK  109  A    between atoms: _264  and  _267
REMARK  110  A    between atoms: _267  and  _268
REMARK  111  A    between atoms: _273  and  _275
REMARK  112  A    between atoms: _275  and  _276
REMARK  113  A    between atoms: _275  and  _278
REMARK  114  A    between atoms: _278  and  _279
REMARK  115  A    between atoms: _279  and  _280
REMARK  116  A    between atoms: _280  and  _281
REMARK  117  A    between atoms: _290  and  _292
REMARK  118  A    between atoms: _292  and  _293
REMARK  119  A    between atoms: _292  and  _295
REMARK  120  A    between atoms: _298  and  _300
REMARK  121  A    between atoms: _300  and  _301
REMARK  122  A    between atoms: _300  and  _303
REMARK  123  A    between atoms: _303  and  _304
REMARK  124  A    between atoms: _307  and  _309
REMARK  125  A    between atoms: _309  and  _310
REMARK  126  A    between atoms: _309  and  _312
REMARK  127  A    between atoms: _312  and  _313
REMARK  128  A    between atoms: _316  and  _318
REMARK  129  A    between atoms: _318  and  _319
REMARK  130  A    between atoms: _321  and  _323
REMARK  131  A    between atoms: _323  and  _324
REMARK  132  A    between atoms: _323  and  _326
REMARK  133  A    between atoms: _326  and  _327
REMARK  134  A    between atoms: _330  and  _332
REMARK  135  A    between atoms: _332  and  _333
REMARK  136  A    between atoms: _332  and  _335
REMARK  137  A    between atoms: _335  and  _336
REMARK  138  A    between atoms: _339  and  _341
REMARK  139  A    between atoms: _341  and  _342
REMARK  140  A    between atoms: _341  and  _344
REMARK  141  A    between atoms: _344  and  _345
REMARK  142  A    between atoms: _345  and  _346
REMARK  143  A    between atoms: _346  and  _347
REMARK  144  A    between atoms: _356  and  _358
REMARK  145  A    between atoms: _358  and  _359
REMARK  146  A    between atoms: _358  and  _361
REMARK  147  A    between atoms: _361  and  _362
REMARK  148  A    between atoms: _367  and  _368
REMARK  149  A    between atoms: _370  and  _372
REMARK  150  A    between atoms: _372  and  _373
REMARK  151  A    between atoms: _372  and  _375
REMARK  152  A    between atoms: _378  and  _380
REMARK  153  A    between atoms: _380  and  _381
REMARK  154  A    between atoms: _380  and  _383
REMARK  155  A    between atoms: _383  and  _384
REMARK  156  A    between atoms: _384  and  _385
REMARK  157  A    between atoms: _385  and  _386
REMARK  158  A    between atoms: _395  and  _397
REMARK  159  A    between atoms: _397  and  _398
REMARK  160  A    between atoms: _397  and  _400
REMARK  161  A    between atoms: _400  and  _401
REMARK  162  A    between atoms: _406  and  _407
REMARK  163  A    between atoms: _409  and  _411
REMARK  164  A    between atoms: _411  and  _412
REMARK  165  A    between atoms: _414  and  _416
REMARK  166  A    between atoms: _416  and  _417
REMARK  167  A    between atoms: _416  and  _419
REMARK  168  A    between atoms: _419  and  _420
REMARK  169  A    between atoms: _420  and  _723
REMARK  170  A    between atoms: _421  and  _423
REMARK  171  A    between atoms: _423  and  _424
REMARK  172  A    between atoms: _423  and  _426
REMARK  173  A    between atoms: _426  and  _427
REMARK  174  A    between atoms: _432  and  _434
REMARK  175  A    between atoms: _434  and  _435
REMARK  176  A    between atoms: _434  and  _437
REMARK  177  A    between atoms: _437  and  _438
REMARK  178  A    between atoms: _443  and  _444
REMARK  179  A    between atoms: _446  and  _448
REMARK  180  A    between atoms: _448  and  _449
REMARK  181  A    between atoms: _452  and  _454
REMARK  182  A    between atoms: _454  and  _455
REMARK  183  A    between atoms: _454  and  _457
REMARK  184  A    between atoms: _457  and  _458
REMARK  185  A    between atoms: _463  and  _464
REMARK  186  A    between atoms: _466  and  _468
REMARK  187  A    between atoms: _468  and  _469
REMARK  188  A    between atoms: _468  and  _471
REMARK  189  A    between atoms: _471  and  _472
REMARK  190  A    between atoms: _477  and  _478
REMARK  191  A    between atoms: _480  and  _482
REMARK  192  A    between atoms: _482  and  _483
REMARK  193  A    between atoms: _482  and  _485
REMARK  194  A    between atoms: _485  and  _486
REMARK  195  A    between atoms: _489  and  _491
REMARK  196  A    between atoms: _491  and  _492
REMARK  197  A    between atoms: _491  and  _494
REMARK  198  A    between atoms: _494  and  _495
REMARK  199  A    between atoms: _505  and  _507
REMARK  200  A    between atoms: _507  and  _508
REMARK  201  A    between atoms: _511  and  _513
REMARK  202  A    between atoms: _513  and  _514
REMARK  203  A    between atoms: _517  and  _519
REMARK  204  A    between atoms: _519  and  _520
REMARK  205  A    between atoms: _519  and  _522
REMARK  206  A    between atoms: _522  and  _523
REMARK  207  A    between atoms: _523  and  _524
REMARK  208  A    between atoms: _529  and  _531
REMARK  209  A    between atoms: _531  and  _532
REMARK  210  A    between atoms: _531  and  _534
REMARK  211  A    between atoms: _534  and  _535
REMARK  212  A    between atoms: _538  and  _540
REMARK  213  A    between atoms: _540  and  _541
REMARK  214  A    between atoms: _540  and  _543
REMARK  215  A    between atoms: _543  and  _544
REMARK  216  A    between atoms: _547  and  _549
REMARK  217  A    between atoms: _549  and  _550
REMARK  218  A    between atoms: _549  and  _552
REMARK  219  A    between atoms: _552  and  _553
REMARK  220  A    between atoms: _553  and  _554
REMARK  221  A    between atoms: _554  and  _555
REMARK  222  A    between atoms: _555  and  _556
REMARK  223  A    between atoms: _560  and  _562
REMARK  224  A    between atoms: _562  and  _563
REMARK  225  A    between atoms: _562  and  _565
REMARK  226  A    between atoms: _565  and  _566
REMARK  227  A    between atoms: _571  and  _573
REMARK  228  A    between atoms: _573  and  _574
REMARK  229  A    between atoms: _573  and  _576
REMARK  230  A    between atoms: _576  and  _577
REMARK  231  A    between atoms: _577  and  _578
REMARK  232  A    between atoms: _578  and  _579
REMARK  233  A    between atoms: _579  and  _580
REMARK  234  A    between atoms: _584  and  _586
REMARK  235  A    between atoms: _586  and  _587
REMARK  236  A    between atoms: _586  and  _589
REMARK  237  A    between atoms: _589  and  _590
REMARK  238  A    between atoms: _600  and  _602
REMARK  239  A    between atoms: _602  and  _603
REMARK  240  A    between atoms: _602  and  _605
REMARK  241  A    between atoms: _605  and  _606
REMARK  242  A    between atoms: _606  and  _607
REMARK  243  A    between atoms: _610  and  _612
REMARK  244  A    between atoms: _612  and  _613
REMARK  245  A    between atoms: _616  and  _618
REMARK  246  A    between atoms: _618  and  _619
REMARK  247  A    between atoms: _622  and  _624
REMARK  248  A    between atoms: _624  and  _625
REMARK  249  A    between atoms: _624  and  _627
REMARK  250  A    between atoms: _627  and  _628
REMARK  251  A    between atoms: _633  and  _635
REMARK  252  A    between atoms: _635  and  _636
REMARK  253  A    between atoms: _635  and  _638
REMARK  254  A    between atoms: _641  and  _643
REMARK  255  A    between atoms: _643  and  _644
REMARK  256  A    between atoms: _647  and  _649
REMARK  257  A    between atoms: _649  and  _650
REMARK  258  A    between atoms: _649  and  _652
REMARK  259  A    between atoms: _652  and  _653
REMARK  260  A    between atoms: _653  and  _654
REMARK  261  A    between atoms: _659  and  _661
REMARK  262  A    between atoms: _661  and  _662
REMARK  263  A    between atoms: _661  and  _664
REMARK  264  A    between atoms: _664  and  _665
REMARK  265  A    between atoms: _668  and  _670
REMARK  266  A    between atoms: _670  and  _671
REMARK  267  A    between atoms: _670  and  _673
REMARK  268  A    between atoms: _673  and  _674
REMARK  269  A    between atoms: _674  and  _675
REMARK  270  A    between atoms: _675  and  _676
REMARK  271  A    between atoms: _685  and  _687
REMARK  272  A    between atoms: _687  and  _688
REMARK  273  A    between atoms: _687  and  _690
REMARK  274  A    between atoms: _690  and  _691
REMARK  275  A    between atoms: _696  and  _697
REMARK  276  A    between atoms: _699  and  _701
REMARK  277  A    between atoms: _701  and  _702
REMARK  278  A    between atoms: _701  and  _704
REMARK  279  A    between atoms: _704  and  _705
REMARK  280  A    between atoms: _708  and  _710
REMARK  281  A    between atoms: _710  and  _711
REMARK  282  A    between atoms: _710  and  _713
REMARK  283  A    between atoms: _713  and  _714
REMARK  284  A    between atoms: _717  and  _719
REMARK  285  A    between atoms: _719  and  _720
REMARK  286  A    between atoms: _719  and  _722
REMARK  287  A    between atoms: _722  and  _723
REMARK  288  A    between atoms: _724  and  _726
REMARK  289  A    between atoms: _726  and  _727
REMARK  290  A    between atoms: _726  and  _729
REMARK  291  A    between atoms: _732  and  _734
REMARK  292  A    between atoms: _734  and  _735
REMARK  293  A    between atoms: _734  and  _737
REMARK  294  A    between atoms: _737  and  _738
REMARK  295  A    between atoms: _738  and  _739
REMARK  296  A    between atoms: _742  and  _744
REMARK  297  A    between atoms: _744  and  _745
REMARK  298  A    between atoms: _744  and  _747
REMARK  299  A    between atoms: _747  and  _748
REMARK  300  A    between atoms: _758  and  _760
REMARK  301  A    between atoms: _760  and  _761
REMARK  302  A    between atoms: _760  and  _763
REMARK  303  A    between atoms: _763  and  _764
REMARK  304  A    between atoms: _767  and  _769
REMARK  305  A    between atoms: _769  and  _770
REMARK  306  A    between atoms: _769  and  _772
REMARK  307  A    between atoms: _772  and  _773
REMARK  308  A    between atoms: _773  and  _774
REMARK  309  A    between atoms: _774  and  _775
REMARK  310  A    between atoms: _784  and  _786
REMARK  311  A    between atoms: _786  and  _787
REMARK  312  A    between atoms: _786  and  _789
REMARK  313  A    between atoms: _789  and  _790
REMARK  314  A    between atoms: _795  and  _796
REMARK                            x       y       z     vdW  Elec       q    Type
REMARK                         _______ _______ _______ _____ _____    ______ ____
ROOT
ATOM      1  C   ARG A   1      13.673 -11.982  47.585  0.00  0.00    +0.238 C 
ATOM      2  O   ARG A   1      12.670 -11.875  48.295  0.00  0.00    -0.274 OA
ATOM      3  N   TYR A   2      13.842 -11.285  46.464  0.00  0.00    -0.298 N 
ATOM      4  H   TYR A   2      14.664 -11.477  45.857  0.00  0.00    +0.150 HD
ENDROOT
BRANCH   1   5
ATOM      5  CA  ARG A   1      14.771 -13.004  47.928  0.00  0.00    +0.145 C 
BRANCH   5   6
ATOM      6  N   ARG A   1      15.113 -13.819  46.754  0.00  0.00    -0.238 NA
ATOM      7  H   ARG A   1      16.098 -13.850  46.421  0.00  0.00    +0.142 HD
ENDBRANCH   5   6
BRANCH   5   8
ATOM      8  CB  ARG A   1      16.000 -12.252  48.450  0.00  0.00    +0.030 C 
BRANCH   8   9
ATOM      9  CG  ARG A   1      15.727 -11.435  49.734  0.00  0.00    +0.045 C 
BRANCH   9  10
ATOM     10  CD  ARG A   1      16.911 -10.551  50.069  0.00  0.00    +0.174 C 
BRANCH  10  11
ATOM     11  NE  ARG A   1      16.620  -9.622  51.163  0.00  0.00    -0.265 N 
ATOM     12  CZ  ARG A   1      16.967  -9.848  52.425  0.00  0.00    +0.342 C 
ATOM     13  NH2 ARG A   1      16.660  -8.968  53.375  0.00  0.00    -0.292 N 
ATOM     14 HH21 ARG A   1      16.934  -9.151  54.361  0.00  0.00    +0.255 HD
ATOM     15 HH22 ARG A   1      16.146  -8.098  53.131  0.00  0.00    +0.255 HD
ATOM     16  NH1 ARG A   1      17.636 -10.955  52.728  0.00  0.00    -0.292 N 
ATOM     17 HH11 ARG A   1      17.913 -11.142  53.713  0.00  0.00    +0.255 HD
ATOM     18 HH12 ARG A   1      17.883 -11.634  51.980  0.00  0.00    +0.255 HD
ATOM     19  HE  ARG A   1      16.116  -8.740  50.940  0.00  0.00    +0.259 HD
ENDBRANCH  10  11
ENDBRANCH   9  10
ENDBRANCH   8   9
ENDBRANCH   5   8
ENDBRANCH   1   5
BRANCH   3  20
ATOM     20  CA  TYR A   2      12.870 -10.239  46.073  0.00  0.00    +0.141 C 
BRANCH  20  21
ATOM     21  C   TYR A   2      11.511 -10.835  45.697  0.00  0.00    +0.227 C 
ATOM     22  O   TYR A   2      10.473 -10.321  46.145  0.00  0.00    -0.286 OA
ENDBRANCH  20  21
BRANCH  20  23
ATOM     23  CB  TYR A   2      13.405  -9.395  44.918  0.00  0.00    +0.054 C 
BRANCH  23  24
ATOM     24  CG  TYR A   2      14.710  -8.675  45.238  0.00  0.00    -0.020 A 
ATOM     25  CD2 TYR A   2      15.027  -8.246  46.533  0.00  0.00    -0.001 A 
ATOM     26  CE2 TYR A   2      16.239  -7.606  46.791  0.00  0.00    +0.036 A 
ATOM     27  CZ  TYR A   2      17.106  -7.327  45.743  0.00  0.00    +0.134 A 
ATOM     28  CE1 TYR A   2      16.809  -7.754  44.465  0.00  0.00    +0.036 A 
ATOM     29  CD1 TYR A   2      15.608  -8.409  44.222  0.00  0.00    -0.001 A 
BRANCH  27  30
ATOM     30  OH  TYR A   2      18.321  -6.707  45.909  0.00  0.00    -0.506 OA
ATOM     31  HH  TYR A   2      18.360  -5.901  45.335  0.00  0.00    +0.292 HD
ENDBRANCH  27  30
ENDBRANCH  23  24
ENDBRANCH  20  23
ENDBRANCH   3  20
TORSDOF 11
REMARK  Name = ../refined-set-2016/3qfd/3qfd_pocket.pdb
REMARK  314 active torsions:
REMARK  status: ('A' for Active; 'I' for Inactive)
REMARK    1  A    between atoms: _1  and  _3
REMARK    2  A    between atoms: _3  and  _4
REMARK    3  A    between atoms: _3  and  _6
REMARK    4  A    between atoms: _6  and  _7
REMARK    5  A    between atoms: _7  and  _8
REMARK    6  A    between atoms: _10  and  _12
REMARK    7  A    between atoms: _12  and  _13
REMARK    8  A    between atoms: _12  and  _15
REMARK    9  A    between atoms: _15  and  _16
REMARK   10  A    between atoms: _16  and  _17
REMARK   11  A    between atoms: _17  and  _18
REMARK   12  A    between atoms: _27  and  _29
REMARK   13  A    between atoms: _29  and  _30
REMARK   14  A    between atoms: _29  and  _32
REMARK   15  A    between atoms: _32  and  _33
REMARK   16  A    between atoms: _38  and  _39
REMARK   17  A    between atoms: _41  and  _43
REMARK   18  A    between atoms: _43  and  _44
REMARK   19  A    between atoms: _43  and  _46
REMARK   20  A    between atoms: _46  and  _47
REMARK   21  A    between atoms: _53  and  _55
REMARK   22  A    between atoms: _55  and  _56
REMARK   23  A    between atoms: _55  and  _58
REMARK   24  A    between atoms: _58  and  _59
REMARK   25  A    between atoms: _65  and  _67
REMARK   26  A    between atoms: _67  and  _68
REMARK   27  A    between atoms: _71  and  _73
REMARK   28  A    between atoms: _73  and  _74
REMARK   29  A    between atoms: _73  and  _76
REMARK   30  A    between atoms: _79  and  _81
REMARK   31  A    between atoms: _81  and  _82
REMARK   32  A    between atoms: _84  and  _86
REMARK   33  A    between atoms: _86  and  _87
REMARK   34  A    between atoms: _86  and  _89
REMARK   35  A    between atoms: _92  and  _94
REMARK   36  A    between atoms: _94  and  _95
REMARK   37  A    between atoms: _94  and  _97
REMARK   38  A    between atoms: _97  and  _98
REMARK   39  A    between atoms: _104  and  _106
REMARK   40  A    between atoms: _106  and  _107
REMARK   41  A    between atoms: _106  and  _109
REMARK   42  A    between atoms: _112  and  _114
REMARK   43  A    between atoms: _114  and  _115
REMARK   44  A    between atoms: _114  and  _117
REMARK   45  A    between atoms: _117  and  _118
REMARK   46  A    between atoms: _118  and  _119
REMARK   47  A    between atoms: _121  and  _123
REMARK   48  A    between atoms: _123  and  _124
REMARK   49  A    between atoms: _123  and  _126
REMARK   50  A    between atoms: _126  and  _127
REMARK   51  A    between atoms: _130  and  _132
REMARK   52  A    between atoms: _132  and  _133
REMARK   53  A    between atoms: _132  and  _135
REMARK   54  A    between atoms: _135  and  _136
REMARK   55  A    between atoms: _136  and  _137
REMARK   56  A    between atoms: _140  and  _142
REMARK   57  A    between atoms: _142  and  _143
REMARK   58  A    between atoms: _142  and  _145
REMARK   59  A    between atoms: _145  and  _146
REMARK   60  A    between atoms: _151  and  _152
REMARK   61  A    between atoms: _154  and  _156
REMARK   62  A    between atoms: _156  and  _157
REMARK   63  A    between atoms: _159  and  _161
REMARK   64  A    between atoms: _161  and  _162
REMARK   65  A    between atoms: _161  and  _164
REMARK   66  A    between atoms: _164  and  _165
REMARK   67  A    between atoms: _165  and  _166
REMARK   68  A    between atoms: _169  and  _171
REMARK   69  A    between atoms: _171  and  _172
REMARK   70  A    between atoms: _171  and  _174
REMARK   71  A    between atoms: _174  and  _175
REMARK   72  A    between atoms: _178  and  _180
REMARK   73  A    between atoms: _180  and  _181
REMARK   74  A    between atoms: _180  and  _183
REMARK   75  A    between atoms: _183  and  _184
REMARK   76  A    between atoms: _184  and  _185
REMARK   77  A    between atoms: _185  and  _186
REMARK   78  A    between atoms: _195  and  _197
REMARK   79  A    between atoms: _197  and  _198
REMARK   80  A    between atoms: _197  and  _200
REMARK   81  A    between atoms: _200  and  _201
REMARK   82  A    between atoms: _201  and  _202
REMARK   83  A    between atoms: _202  and  _203
REMARK   84  A    between atoms: _203  and  _204
REMARK   85  A    between atoms: _208  and  _210
REMARK   86  A    between atoms: _210  and  _211
REMARK   87  A    between atoms: _210  and  _213
REMARK   88  A    between atoms: _216  and  _218
REMARK   89  A    between atoms: _218  and  _219
REMARK   90  A    between atoms: _222  and  _224
REMARK   91  A    between atoms: _224  and  _225
REMARK   92  A    between atoms: _224  and  _227
REMARK   93  A    between atoms: _227  and  _228
REMARK   94  A    between atoms: _233  and  _235
REMARK   95  A    between atoms: _235  and  _236
REMARK   96  A    between atoms: _235  and  _238
REMARK   97  A    between atoms: _238  and  _239
REMARK   98  A    between atoms: _241  and  _243
REMARK   99  A    between atoms: _243  and  _244
REMARK  100  A    between atoms: _243  and  _246
REMARK  101  A    between atoms: _246  and  _247
REMARK  102  A    between atoms: _247  and  _248
REMARK  103  A    between atoms: _253  and  _255
REMARK  104  A    between atoms: _255  and  _256
REMARK  105  A    between atoms: _255  and  _258
REMARK  106  A    between atoms: _258  and  _259
REMARK  107  A    between atoms: _262  and  _264
REMARK  108  A    between atoms: _264  and  _265
REMARK  109  A    between atoms: _264  and  _267
REMARK  110  A    between atoms: _267  and  _268
REMARK  111  A    between atoms: _273  and  _275
REMARK  112  A    between atoms: _275  and  _276
REMARK  113  A    between atoms: _275  and  _278
REMARK  114  A    between atoms: _278  and  _279
REMARK  115  A    between atoms: _279  and  _280
REMARK  116  A    between atoms: _280  and  _281
REMARK  117  A    between atoms: _290  and  _292
REMARK  118  A    between atoms: _292  and  _293
REMARK  119  A    between atoms: _292  and  _295
REMARK  120  A    between atoms: _298  and  _300
REMARK  121  A    between atoms: _300  and  _301
REMARK  122  A    between atoms: _300  and  _303
REMARK  123  A    between atoms: _303  and  _304
REMARK  124  A    between atoms: _307  and  _309
REMARK  125  A    between atoms: _309  and  _310
REMARK  126  A    between atoms: _309  and  _312
REMARK  127  A    between atoms: _312  and  _313
REMARK  128  A    between atoms: _316  and  _318
REMARK  129  A    between atoms: _318  and  _319
REMARK  130  A    between atoms: _321  and  _323
REMARK  131  A    between atoms: _323  and  _324
REMARK  132  A    between atoms: _323  and  _326
REMARK  133  A    between atoms: _326  and  _327
REMARK  134  A    between atoms: _330  and  _332
REMARK  135  A    between atoms: _332  and  _333
REMARK  136  A    between atoms: _332  and  _335
REMARK  137  A    between atoms: _335  and  _336
REMARK  138  A    between atoms: _339  and  _341
REMARK  139  A    between atoms: _341  and  _342
REMARK  140  A    between atoms: _341  and  _344
REMARK  141  A    between atoms: _344  and  _345
REMARK  142  A    between atoms: _345  and  _346
REMARK  143  A    between atoms: _346  and  _347
REMARK  144  A    between atoms: _356  and  _358
REMARK  145  A    between atoms: _358  and  _359
REMARK  146  A    between atoms: _358  and  _361
REMARK  147  A    between atoms: _361  and  _362
REMARK  148  A    between atoms: _367  and  _368
REMARK  149  A    between atoms: _370  and  _372
REMARK  150  A    between atoms: _372  and  _373
REMARK  151  A    between atoms: _372  and  _375
REMARK  152  A    between atoms: _378  and  _380
REMARK  153  A    between atoms: _380  and  _381
REMARK  154  A    between atoms: _380  and  _383
REMARK  155  A    between atoms: _383  and  _384
REMARK  156  A    between atoms: _384  and  _385
REMARK  157  A    between atoms: _385  and  _386
REMARK  158  A    between atoms: _395  and  _397
REMARK  159  A    between atoms: _397  and  _398
REMARK  160  A    between atoms: _397  and  _400
REMARK  161  A    between atoms: _400  and  _401
REMARK  162  A    between atoms: _406  and  _407
REMARK  163  A    between atoms: _409  and  _411
REMARK  164  A    between atoms: _411  and  _412
REMARK  165  A    between atoms: _414  and  _416
REMARK  166  A    between atoms: _416  and  _417
REMARK  167  A    between atoms: _416  and  _419
REMARK  168  A    between atoms: _419  and  _420
REMARK  169  A    between atoms: _420  and  _723
REMARK  170  A    between atoms: _421  and  _423
REMARK  171  A    between atoms: _423  and  _424
REMARK  172  A    between atoms: _423  and  _426
REMARK  173  A    between atoms: _426  and  _427
REMARK  174  A    between atoms: _432  and  _434
REMARK  175  A    between atoms: _434  and  _435
REMARK  176  A    between atoms: _434  and  _437
REMARK  177  A    between atoms: _437  and  _438
REMARK  178  A    between atoms: _443  and  _444
REMARK  179  A    between atoms: _446  and  _448
REMARK  180  A    between atoms: _448  and  _449
REMARK  181  A    between atoms: _452  and  _454
REMARK  182  A    between atoms: _454  and  _455
REMARK  183  A    between atoms: _454  and  _457
REMARK  184  A    between atoms: _457  and  _458
REMARK  185  A    between atoms: _463  and  _464
REMARK  186  A    between atoms: _466  and  _468
REMARK  187  A    between atoms: _468  and  _469
REMARK  188  A    between atoms: _468  and  _471
REMARK  189  A    between atoms: _471  and  _472
REMARK  190  A    between atoms: _477  and  _478
REMARK  191  A    between atoms: _480  and  _482
REMARK  192  A    between atoms: _482  and  _483
REMARK  193  A    between atoms: _482  and  _485
REMARK  194  A    between atoms: _485  and  _486
REMARK  195  A    between atoms: _489  and  _491
REMARK  196  A    between atoms: _491  and  _492
REMARK  197  A    between atoms: _491  and  _494
REMARK  198  A    between atoms: _494  and  _495
REMARK  199  A    between atoms: _505  and  _507
REMARK  200  A    between atoms: _507  and  _508
REMARK  201  A    between atoms: _511  and  _513
REMARK  202  A    between atoms: _513  and  _514
REMARK  203  A    between atoms: _517  and  _519
REMARK  204  A    between atoms: _519  and  _520
REMARK  205  A    between atoms: _519  and  _522
REMARK  206  A    between atoms: _522  and  _523
REMARK  207  A    between atoms: _523  and  _524
REMARK  208  A    between atoms: _529  and  _531
REMARK  209  A    between atoms: _531  and  _532
REMARK  210  A    between atoms: _531  and  _534
REMARK  211  A    between atoms: _534  and  _535
REMARK  212  A    between atoms: _538  and  _540
REMARK  213  A    between atoms: _540  and  _541
REMARK  214  A    between atoms: _540  and  _543
REMARK  215  A    between atoms: _543  and  _544
REMARK  216  A    between atoms: _547  and  _549
REMARK  217  A    between atoms: _549  and  _550
REMARK  218  A    between atoms: _549  and  _552
REMARK  219  A    between atoms: _552  and  _553
REMARK  220  A    between atoms: _553  and  _554
REMARK  221  A    between atoms: _554  and  _555
REMARK  222  A    between atoms: _555  and  _556
REMARK  223  A    between atoms: _560  and  _562
REMARK  224  A    between atoms: _562  and  _563
REMARK  225  A    between atoms: _562  and  _565
REMARK  226  A    between atoms: _565  and  _566
REMARK  227  A    between atoms: _571  and  _573
REMARK  228  A    between atoms: _573  and  _574
REMARK  229  A    between atoms: _573  and  _576
REMARK  230  A    between atoms: _576  and  _577
REMARK  231  A    between atoms: _577  and  _578
REMARK  232  A    between atoms: _578  and  _579
REMARK  233  A    between atoms: _579  and  _580
REMARK  234  A    between atoms: _584  and  _586
REMARK  235  A    between atoms: _586  and  _587
REMARK  236  A    between atoms: _586  and  _589
REMARK  237  A    between atoms: _589  and  _590
REMARK  238  A    between atoms: _600  and  _602
REMARK  239  A    between atoms: _602  and  _603
REMARK  240  A    between atoms: _602  and  _605
REMARK  241  A    between atoms: _605  and  _606
REMARK  242  A    between atoms: _606  and  _607
REMARK  243  A    between atoms: _610  and  _612
REMARK  244  A    between atoms: _612  and  _613
REMARK  245  A    between atoms: _616  and  _618
REMARK  246  A    between atoms: _618  and  _619
REMARK  247  A    between atoms: _622  and  _624
REMARK  248  A    between atoms: _624  and  _625
REMARK  249  A    between atoms: _624  and  _627
REMARK  250  A    between atoms: _627  and  _628
REMARK  251  A    between atoms: _633  and  _635
REMARK  252  A    between atoms: _635  and  _636
REMARK  253  A    between atoms: _635  and  _638
REMARK  254  A    between atoms: _641  and  _643
REMARK  255  A    between atoms: _643  and  _644
REMARK  256  A    between atoms: _647  and  _649
REMARK  257  A    between atoms: _649  and  _650
REMARK  258  A    between atoms: _649  and  _652
REMARK  259  A    between atoms: _652  and  _653
REMARK  260  A    between atoms: _653  and  _654
REMARK  261  A    between atoms: _659  and  _661
REMARK  262  A    between atoms: _661  and  _662
REMARK  263  A    between atoms: _661  and  _664
REMARK  264  A    between atoms: _664  and  _665
REMARK  265  A    between atoms: _668  and  _670
REMARK  266  A    between atoms: _670  and  _671
REMARK  267  A    between atoms: _670  and  _673
REMARK  268  A    between atoms: _673  and  _674
REMARK  269  A    between atoms: _674  and  _675
REMARK  270  A    between atoms: _675  and  _676
REMARK  271  A    between atoms: _685  and  _687
REMARK  272  A    between atoms: _687  and  _688
REMARK  273  A    between atoms: _687  and  _690
REMARK  274  A    between atoms: _690  and  _691
REMARK  275  A    between atoms: _696  and  _697
REMARK  276  A    between atoms: _699  and  _701
REMARK  277  A    between atoms: _701  and  _702
REMARK  278  A    between atoms: _701  and  _704
REMARK  279  A    between atoms: _704  and  _705
REMARK  280  A    between atoms: _708  and  _710
REMARK  281  A    between atoms: _710  and  _711
REMARK  282  A    between atoms: _710  and  _713
REMARK  283  A    between atoms: _713  and  _714
REMARK  284  A    between atoms: _717  and  _719
REMARK  285  A    between atoms: _719  and  _720
REMARK  286  A    between atoms: _719  and  _722
REMARK  287  A    between atoms: _722  and  _723
REMARK  288  A    between atoms: _724  and  _726
REMARK  289  A    between atoms: _726  and  _727
REMARK  290  A    between atoms: _726  and  _729
REMARK  291  A    between atoms: _732  and  _734
REMARK  292  A    between atoms: _734  and  _735
REMARK  293  A    between atoms: _734  and  _737
REMARK  294  A    between atoms: _737  and  _738
REMARK  295  A    between atoms: _738  and  _739
REMARK  296  A    between atoms: _742  and  _744
REMARK  297  A    between atoms: _744  and  _745
REMARK  298  A    between atoms: _744  and  _747
REMARK  299  A    between atoms: _747  and  _748
REMARK  300  A    between atoms: _758  and  _760
REMARK  301  A    between atoms: _760  and  _761
REMARK  302  A    between atoms: _760  and  _763
REMARK  303  A    between atoms: _763  and  _764
REMARK  304  A    between atoms: _767  and  _769
REMARK  305  A    between atoms: _769  and  _770
REMARK  306  A    between atoms: _769  and  _772
REMARK  307  A    between atoms: _772  and  _773
REMARK  308  A    between atoms: _773  and  _774
REMARK  309  A    between atoms: _774  and  _775
REMARK  310  A    between atoms: _784  and  _786
REMARK  311  A    between atoms: _786  and  _787
REMARK  312  A    between atoms: _786  and  _789
REMARK  313  A    between atoms: _789  and  _790
REMARK  314  A    between atoms: _795  and  _796
REMARK                            x       y       z     vdW  Elec       q    Type
REMARK                         _______ _______ _______ _____ _____    ______ ____
ROOT
ATOM      1  O   HOH     1      19.813  -2.861  44.238  0.00  0.00    +0.000 OA
ENDROOT
TORSDOF 0
REMARK  Name = ../refined-set-2016/3qfd/3qfd_pocket.pdb
REMARK  314 active torsions:
REMARK  status: ('A' for Active; 'I' for Inactive)
REMARK    1  A    between atoms: _1  and  _3
REMARK    2  A    between atoms: _3  and  _4
REMARK    3  A    between atoms: _3  and  _6
REMARK    4  A    between atoms: _6  and  _7
REMARK    5  A    between atoms: _7  and  _8
REMARK    6  A    between atoms: _10  and  _12
REMARK    7  A    between atoms: _12  and  _13
REMARK    8  A    between atoms: _12  and  _15
REMARK    9  A    between atoms: _15  and  _16
REMARK   10  A    between atoms: _16  and  _17
REMARK   11  A    between atoms: _17  and  _18
REMARK   12  A    between atoms: _27  and  _29
REMARK   13  A    between atoms: _29  and  _30
REMARK   14  A    between atoms: _29  and  _32
REMARK   15  A    between atoms: _32  and  _33
REMARK   16  A    between atoms: _38  and  _39
REMARK   17  A    between atoms: _41  and  _43
REMARK   18  A    between atoms: _43  and  _44
REMARK   19  A    between atoms: _43  and  _46
REMARK   20  A    between atoms: _46  and  _47
REMARK   21  A    between atoms: _53  and  _55
REMARK   22  A    between atoms: _55  and  _56
REMARK   23  A    between atoms: _55  and  _58
REMARK   24  A    between atoms: _58  and  _59
REMARK   25  A    between atoms: _65  and  _67
REMARK   26  A    between atoms: _67  and  _68
REMARK   27  A    between atoms: _71  and  _73
REMARK   28  A    between atoms: _73  and  _74
REMARK   29  A    between atoms: _73  and  _76
REMARK   30  A    between atoms: _79  and  _81
REMARK   31  A    between atoms: _81  and  _82
REMARK   32  A    between atoms: _84  and  _86
REMARK   33  A    between atoms: _86  and  _87
REMARK   34  A    between atoms: _86  and  _89
REMARK   35  A    between atoms: _92  and  _94
REMARK   36  A    between atoms: _94  and  _95
REMARK   37  A    between atoms: _94  and  _97
REMARK   38  A    between atoms: _97  and  _98
REMARK   39  A    between atoms: _104  and  _106
REMARK   40  A    between atoms: _106  and  _107
REMARK   41  A    between atoms: _106  and  _109
REMARK   42  A    between atoms: _112  and  _114
REMARK   43  A    between atoms: _114  and  _115
REMARK   44  A    between atoms: _114  and  _117
REMARK   45  A    between atoms: _117  and  _118
REMARK   46  A    between atoms: _118  and  _119
REMARK   47  A    between atoms: _121  and  _123
REMARK   48  A    between atoms: _123  and  _124
REMARK   49  A    between atoms: _123  and  _126
REMARK   50  A    between atoms: _126  and  _127
REMARK   51  A    between atoms: _130  and  _132
REMARK   52  A    between atoms: _132  and  _133
REMARK   53  A    between atoms: _132  and  _135
REMARK   54  A    between atoms: _135  and  _136
REMARK   55  A    between atoms: _136  and  _137
REMARK   56  A    between atoms: _140  and  _142
REMARK   57  A    between atoms: _142  and  _143
REMARK   58  A    between atoms: _142  and  _145
REMARK   59  A    between atoms: _145  and  _146
REMARK   60  A    between atoms: _151  and  _152
REMARK   61  A    between atoms: _154  and  _156
REMARK   62  A    between atoms: _156  and  _157
REMARK   63  A    between atoms: _159  and  _161
REMARK   64  A    between atoms: _161  and  _162
REMARK   65  A    between atoms: _161  and  _164
REMARK   66  A    between atoms: _164  and  _165
REMARK   67  A    between atoms: _165  and  _166
REMARK   68  A    between atoms: _169  and  _171
REMARK   69  A    between atoms: _171  and  _172
REMARK   70  A    between atoms: _171  and  _174
REMARK   71  A    between atoms: _174  and  _175
REMARK   72  A    between atoms: _178  and  _180
REMARK   73  A    between atoms: _180  and  _181
REMARK   74  A    between atoms: _180  and  _183
REMARK   75  A    between atoms: _183  and  _184
REMARK   76  A    between atoms: _184  and  _185
REMARK   77  A    between atoms: _185  and  _186
REMARK   78  A    between atoms: _195  and  _197
REMARK   79  A    between atoms: _197  and  _198
REMARK   80  A    between atoms: _197  and  _200
REMARK   81  A    between atoms: _200  and  _201
REMARK   82  A    between atoms: _201  and  _202
REMARK   83  A    between atoms: _202  and  _203
REMARK   84  A    between atoms: _203  and  _204
REMARK   85  A    between atoms: _208  and  _210
REMARK   86  A    between atoms: _210  and  _211
REMARK   87  A    between atoms: _210  and  _213
REMARK   88  A    between atoms: _216  and  _218
REMARK   89  A    between atoms: _218  and  _219
REMARK   90  A    between atoms: _222  and  _224
REMARK   91  A    between atoms: _224  and  _225
REMARK   92  A    between atoms: _224  and  _227
REMARK   93  A    between atoms: _227  and  _228
REMARK   94  A    between atoms: _233  and  _235
REMARK   95  A    between atoms: _235  and  _236
REMARK   96  A    between atoms: _235  and  _238
REMARK   97  A    between atoms: _238  and  _239
REMARK   98  A    between atoms: _241  and  _243
REMARK   99  A    between atoms: _243  and  _244
REMARK  100  A    between atoms: _243  and  _246
REMARK  101  A    between atoms: _246  and  _247
REMARK  102  A    between atoms: _247  and  _248
REMARK  103  A    between atoms: _253  and  _255
REMARK  104  A    between atoms: _255  and  _256
REMARK  105  A    between atoms: _255  and  _258
REMARK  106  A    between atoms: _258  and  _259
REMARK  107  A    between atoms: _262  and  _264
REMARK  108  A    between atoms: _264  and  _265
REMARK  109  A    between atoms: _264  and  _267
REMARK  110  A    between atoms: _267  and  _268
REMARK  111  A    between atoms: _273  and  _275
REMARK  112  A    between atoms: _275  and  _276
REMARK  113  A    between atoms: _275  and  _278
REMARK  114  A    between atoms: _278  and  _279
REMARK  115  A    between atoms: _279  and  _280
REMARK  116  A    between atoms: _280  and  _281
REMARK  117  A    between atoms: _290  and  _292
REMARK  118  A    between atoms: _292  and  _293
REMARK  119  A    between atoms: _292  and  _295
REMARK  120  A    between atoms: _298  and  _300
REMARK  121  A    between atoms: _300  and  _301
REMARK  122  A    between atoms: _300  and  _303
REMARK  123  A    between atoms: _303  and  _304
REMARK  124  A    between atoms: _307  and  _309
REMARK  125  A    between atoms: _309  and  _310
REMARK  126  A    between atoms: _309  and  _312
REMARK  127  A    between atoms: _312  and  _313
REMARK  128  A    between atoms: _316  and  _318
REMARK  129  A    between atoms: _318  and  _319
REMARK  130  A    between atoms: _321  and  _323
REMARK  131  A    between atoms: _323  and  _324
REMARK  132  A    between atoms: _323  and  _326
REMARK  133  A    between atoms: _326  and  _327
REMARK  134  A    between atoms: _330  and  _332
REMARK  135  A    between atoms: _332  and  _333
REMARK  136  A    between atoms: _332  and  _335
REMARK  137  A    between atoms: _335  and  _336
REMARK  138  A    between atoms: _339  and  _341
REMARK  139  A    between atoms: _341  and  _342
REMARK  140  A    between atoms: _341  and  _344
REMARK  141  A    between atoms: _344  and  _345
REMARK  142  A    between atoms: _345  and  _346
REMARK  143  A    between atoms: _346  and  _347
REMARK  144  A    between atoms: _356  and  _358
REMARK  145  A    between atoms: _358  and  _359
REMARK  146  A    between atoms: _358  and  _361
REMARK  147  A    between atoms: _361  and  _362
REMARK  148  A    between atoms: _367  and  _368
REMARK  149  A    between atoms: _370  and  _372
REMARK  150  A    between atoms: _372  and  _373
REMARK  151  A    between atoms: _372  and  _375
REMARK  152  A    between atoms: _378  and  _380
REMARK  153  A    between atoms: _380  and  _381
REMARK  154  A    between atoms: _380  and  _383
REMARK  155  A    between atoms: _383  and  _384
REMARK  156  A    between atoms: _384  and  _385
REMARK  157  A    between atoms: _385  and  _386
REMARK  158  A    between atoms: _395  and  _397
REMARK  159  A    between atoms: _397  and  _398
REMARK  160  A    between atoms: _397  and  _400
REMARK  161  A    between atoms: _400  and  _401
REMARK  162  A    between atoms: _406  and  _407
REMARK  163  A    between atoms: _409  and  _411
REMARK  164  A    between atoms: _411  and  _412
REMARK  165  A    between atoms: _414  and  _416
REMARK  166  A    between atoms: _416  and  _417
REMARK  167  A    between atoms: _416  and  _419
REMARK  168  A    between atoms: _419  and  _420
REMARK  169  A    between atoms: _420  and  _723
REMARK  170  A    between atoms: _421  and  _423
REMARK  171  A    between atoms: _423  and  _424
REMARK  172  A    between atoms: _423  and  _426
REMARK  173  A    between atoms: _426  and  _427
REMARK  174  A    between atoms: _432  and  _434
REMARK  175  A    between atoms: _434  and  _435
REMARK  176  A    between atoms: _434  and  _437
REMARK  177  A    between atoms: _437  and  _438
REMARK  178  A    between atoms: _443  and  _444
REMARK  179  A    between atoms: _446  and  _448
REMARK  180  A    between atoms: _448  and  _449
REMARK  181  A    between atoms: _452  and  _454
REMARK  182  A    between atoms: _454  and  _455
REMARK  183  A    between atoms: _454  and  _457
REMARK  184  A    between atoms: _457  and  _458
REMARK  185  A    between atoms: _463  and  _464
REMARK  186  A    between atoms: _466  and  _468
REMARK  187  A    between atoms: _468  and  _469
REMARK  188  A    between atoms: _468  and  _471
REMARK  189  A    between atoms: _471  and  _472
REMARK  190  A    between atoms: _477  and  _478
REMARK  191  A    between atoms: _480  and  _482
REMARK  192  A    between atoms: _482  and  _483
REMARK  193  A    between atoms: _482  and  _485
REMARK  194  A    between atoms: _485  and  _486
REMARK  195  A    between atoms: _489  and  _491
REMARK  196  A    between atoms: _491  and  _492
REMARK  197  A    between atoms: _491  and  _494
REMARK  198  A    between atoms: _494  and  _495
REMARK  199  A    between atoms: _505  and  _507
REMARK  200  A    between atoms: _507  and  _508
REMARK  201  A    between atoms: _511  and  _513
REMARK  202  A    between atoms: _513  and  _514
REMARK  203  A    between atoms: _517  and  _519
REMARK  204  A    between atoms: _519  and  _520
REMARK  205  A    between atoms: _519  and  _522
REMARK  206  A    between atoms: _522  and  _523
REMARK  207  A    between atoms: _523  and  _524
REMARK  208  A    between atoms: _529  and  _531
REMARK  209  A    between atoms: _531  and  _532
REMARK  210  A    between atoms: _531  and  _534
REMARK  211  A    between atoms: _534  and  _535
REMARK  212  A    between atoms: _538  and  _540
REMARK  213  A    between atoms: _540  and  _541
REMARK  214  A    between atoms: _540  and  _543
REMARK  215  A    between atoms: _543  and  _544
REMARK  216  A    between atoms: _547  and  _549
REMARK  217  A    between atoms: _549  and  _550
REMARK  218  A    between atoms: _549  and  _552
REMARK  219  A    between atoms: _552  and  _553
REMARK  220  A    between atoms: _553  and  _554
REMARK  221  A    between atoms: _554  and  _555
REMARK  222  A    between atoms: _555  and  _556
REMARK  223  A    between atoms: _560  and  _562
REMARK  224  A    between atoms: _562  and  _563
REMARK  225  A    between atoms: _562  and  _565
REMARK  226  A    between atoms: _565  and  _566
REMARK  227  A    between atoms: _571  and  _573
REMARK  228  A    between atoms: _573  and  _574
REMARK  229  A    between atoms: _573  and  _576
REMARK  230  A    between atoms: _576  and  _577
REMARK  231  A    between atoms: _577  and  _578
REMARK  232  A    between atoms: _578  and  _579
REMARK  233  A    between atoms: _579  and  _580
REMARK  234  A    between atoms: _584  and  _586
REMARK  235  A    between atoms: _586  and  _587
REMARK  236  A    between atoms: _586  and  _589
REMARK  237  A    between atoms: _589  and  _590
REMARK  238  A    between atoms: _600  and  _602
REMARK  239  A    between atoms: _602  and  _603
REMARK  240  A    between atoms: _602  and  _605
REMARK  241  A    between atoms: _605  and  _606
REMARK  242  A    between atoms: _606  and  _607
REMARK  243  A    between atoms: _610  and  _612
REMARK  244  A    between atoms: _612  and  _613
REMARK  245  A    between atoms: _616  and  _618
REMARK  246  A    between atoms: _618  and  _619
REMARK  247  A    between atoms: _622  and  _624
REMARK  248  A    between atoms: _624  and  _625
REMARK  249  A    between atoms: _624  and  _627
REMARK  250  A    between atoms: _627  and  _628
REMARK  251  A    between atoms: _633  and  _635
REMARK  252  A    between atoms: _635  and  _636
REMARK  253  A    between atoms: _635  and  _638
REMARK  254  A    between atoms: _641  and  _643
REMARK  255  A    between atoms: _643  and  _644
REMARK  256  A    between atoms: _647  and  _649
REMARK  257  A    between atoms: _649  and  _650
REMARK  258  A    between atoms: _649  and  _652
REMARK  259  A    between atoms: _652  and  _653
REMARK  260  A    between atoms: _653  and  _654
REMARK  261  A    between atoms: _659  and  _661
REMARK  262  A    between atoms: _661  and  _662
REMARK  263  A    between atoms: _661  and  _664
REMARK  264  A    between atoms: _664  and  _665
REMARK  265  A    between atoms: _668  and  _670
REMARK  266  A    between atoms: _670  and  _671
REMARK  267  A    between atoms: _670  and  _673
REMARK  268  A    between atoms: _673  and  _674
REMARK  269  A    between atoms: _674  and  _675
REMARK  270  A    between atoms: _675  and  _676
REMARK  271  A    between atoms: _685  and  _687
REMARK  272  A    between atoms: _687  and  _688
REMARK  273  A    between atoms: _687  and  _690
REMARK  274  A    between atoms: _690  and  _691
REMARK  275  A    between atoms: _696  and  _697
REMARK  276  A    between atoms: _699  and  _701
REMARK  277  A    between atoms: _701  and  _702
REMARK  278  A    between atoms: _701  and  _704
REMARK  279  A    between atoms: _704  and  _705
REMARK  280  A    between atoms: _708  and  _710
REMARK  281  A    between atoms: _710  and  _711
REMARK  282  A    between atoms: _710  and  _713
REMARK  283  A    between atoms: _713  and  _714
REMARK  284  A    between atoms: _717  and  _719
REMARK  285  A    between atoms: _719  and  _720
REMARK  286  A    between atoms: _719  and  _722
REMARK  287  A    between atoms: _722  and  _723
REMARK  288  A    between atoms: _724  and  _726
REMARK  289  A    between atoms: _726  and  _727
REMARK  290  A    between atoms: _726  and  _729
REMARK  291  A    between atoms: _732  and  _734
REMARK  292  A    between atoms: _734  and  _735
REMARK  293  A    between atoms: _734  and  _737
REMARK  294  A    between atoms: _737  and  _738
REMARK  295  A    between atoms: _738  and  _739
REMARK  296  A    between atoms: _742  and  _744
REMARK  297  A    between atoms: _744  and  _745
REMARK  298  A    between atoms: _744  and  _747
REMARK  299  A    between atoms: _747  and  _748
REMARK  300  A    between atoms: _758  and  _760
REMARK  301  A    between atoms: _760  and  _761
REMARK  302  A    between atoms: _760  and  _763
REMARK  303  A    between atoms: _763  and  _764
REMARK  304  A    between atoms: _767  and  _769
REMARK  305  A    between atoms: _769  and  _770
REMARK  306  A    between atoms: _769  and  _772
REMARK  307  A    between atoms: _772  and  _773
REMARK  308  A    between atoms: _773  and  _774
REMARK  309  A    between atoms: _774  and  _775
REMARK  310  A    between atoms: _784  and  _786
REMARK  311  A    between atoms: _786  and  _787
REMARK  312  A    between atoms: _786  and  _789
REMARK  313  A    between atoms: _789  and  _790
REMARK  314  A    between atoms: _795  and  _796
REMARK                            x       y       z     vdW  Elec       q    Type
REMARK                         _______ _______ _______ _____ _____    ______ ____
ROOT
ATOM      1  O   HOH     1      41.304   5.597  24.711  0.00  0.00    +0.000 OA
ENDROOT
TORSDOF 0
REMARK  Name = ../refined-set-2016/3qfd/3qfd_pocket.pdb
REMARK  314 active torsions:
REMARK  status: ('A' for Active; 'I' for Inactive)
REMARK    1  A    between atoms: _1  and  _3
REMARK    2  A    between atoms: _3  and  _4
REMARK    3  A    between atoms: _3  and  _6
REMARK    4  A    between atoms: _6  and  _7
REMARK    5  A    between atoms: _7  and  _8
REMARK    6  A    between atoms: _10  and  _12
REMARK    7  A    between atoms: _12  and  _13
REMARK    8  A    between atoms: _12  and  _15
REMARK    9  A    between atoms: _15  and  _16
REMARK   10  A    between atoms: _16  and  _17
REMARK   11  A    between atoms: _17  and  _18
REMARK   12  A    between atoms: _27  and  _29
REMARK   13  A    between atoms: _29  and  _30
REMARK   14  A    between atoms: _29  and  _32
REMARK   15  A    between atoms: _32  and  _33
REMARK   16  A    between atoms: _38  and  _39
REMARK   17  A    between atoms: _41  and  _43
REMARK   18  A    between atoms: _43  and  _44
REMARK   19  A    between atoms: _43  and  _46
REMARK   20  A    between atoms: _46  and  _47
REMARK   21  A    between atoms: _53  and  _55
REMARK   22  A    between atoms: _55  and  _56
REMARK   23  A    between atoms: _55  and  _58
REMARK   24  A    between atoms: _58  and  _59
REMARK   25  A    between atoms: _65  and  _67
REMARK   26  A    between atoms: _67  and  _68
REMARK   27  A    between atoms: _71  and  _73
REMARK   28  A    between atoms: _73  and  _74
REMARK   29  A    between atoms: _73  and  _76
REMARK   30  A    between atoms: _79  and  _81
REMARK   31  A    between atoms: _81  and  _82
REMARK   32  A    between atoms: _84  and  _86
REMARK   33  A    between atoms: _86  and  _87
REMARK   34  A    between atoms: _86  and  _89
REMARK   35  A    between atoms: _92  and  _94
REMARK   36  A    between atoms: _94  and  _95
REMARK   37  A    between atoms: _94  and  _97
REMARK   38  A    between atoms: _97  and  _98
REMARK   39  A    between atoms: _104  and  _106
REMARK   40  A    between atoms: _106  and  _107
REMARK   41  A    between atoms: _106  and  _109
REMARK   42  A    between atoms: _112  and  _114
REMARK   43  A    between atoms: _114  and  _115
REMARK   44  A    between atoms: _114  and  _117
REMARK   45  A    between atoms: _117  and  _118
REMARK   46  A    between atoms: _118  and  _119
REMARK   47  A    between atoms: _121  and  _123
REMARK   48  A    between atoms: _123  and  _124
REMARK   49  A    between atoms: _123  and  _126
REMARK   50  A    between atoms: _126  and  _127
REMARK   51  A    between atoms: _130  and  _132
REMARK   52  A    between atoms: _132  and  _133
REMARK   53  A    between atoms: _132  and  _135
REMARK   54  A    between atoms: _135  and  _136
REMARK   55  A    between atoms: _136  and  _137
REMARK   56  A    between atoms: _140  and  _142
REMARK   57  A    between atoms: _142  and  _143
REMARK   58  A    between atoms: _142  and  _145
REMARK   59  A    between atoms: _145  and  _146
REMARK   60  A    between atoms: _151  and  _152
REMARK   61  A    between atoms: _154  and  _156
REMARK   62  A    between atoms: _156  and  _157
REMARK   63  A    between atoms: _159  and  _161
REMARK   64  A    between atoms: _161  and  _162
REMARK   65  A    between atoms: _161  and  _164
REMARK   66  A    between atoms: _164  and  _165
REMARK   67  A    between atoms: _165  and  _166
REMARK   68  A    between atoms: _169  and  _171
REMARK   69  A    between atoms: _171  and  _172
REMARK   70  A    between atoms: _171  and  _174
REMARK   71  A    between atoms: _174  and  _175
REMARK   72  A    between atoms: _178  and  _180
REMARK   73  A    between atoms: _180  and  _181
REMARK   74  A    between atoms: _180  and  _183
REMARK   75  A    between atoms: _183  and  _184
REMARK   76  A    between atoms: _184  and  _185
REMARK   77  A    between atoms: _185  and  _186
REMARK   78  A    between atoms: _195  and  _197
REMARK   79  A    between atoms: _197  and  _198
REMARK   80  A    between atoms: _197  and  _200
REMARK   81  A    between atoms: _200  and  _201
REMARK   82  A    between atoms: _201  and  _202
REMARK   83  A    between atoms: _202  and  _203
REMARK   84  A    between atoms: _203  and  _204
REMARK   85  A    between atoms: _208  and  _210
REMARK   86  A    between atoms: _210  and  _211
REMARK   87  A    between atoms: _210  and  _213
REMARK   88  A    between atoms: _216  and  _218
REMARK   89  A    between atoms: _218  and  _219
REMARK   90  A    between atoms: _222  and  _224
REMARK   91  A    between atoms: _224  and  _225
REMARK   92  A    between atoms: _224  and  _227
REMARK   93  A    between atoms: _227  and  _228
REMARK   94  A    between atoms: _233  and  _235
REMARK   95  A    between atoms: _235  and  _236
REMARK   96  A    between atoms: _235  and  _238
REMARK   97  A    between atoms: _238  and  _239
REMARK   98  A    between atoms: _241  and  _243
REMARK   99  A    between atoms: _243  and  _244
REMARK  100  A    between atoms: _243  and  _246
REMARK  101  A    between atoms: _246  and  _247
REMARK  102  A    between atoms: _247  and  _248
REMARK  103  A    between atoms: _253  and  _255
REMARK  104  A    between atoms: _255  and  _256
REMARK  105  A    between atoms: _255  and  _258
REMARK  106  A    between atoms: _258  and  _259
REMARK  107  A    between atoms: _262  and  _264
REMARK  108  A    between atoms: _264  and  _265
REMARK  109  A    between atoms: _264  and  _267
REMARK  110  A    between atoms: _267  and  _268
REMARK  111  A    between atoms: _273  and  _275
REMARK  112  A    between atoms: _275  and  _276
REMARK  113  A    between atoms: _275  and  _278
REMARK  114  A    between atoms: _278  and  _279
REMARK  115  A    between atoms: _279  and  _280
REMARK  116  A    between atoms: _280  and  _281
REMARK  117  A    between atoms: _290  and  _292
REMARK  118  A    between atoms: _292  and  _293
REMARK  119  A    between atoms: _292  and  _295
REMARK  120  A    between atoms: _298  and  _300
REMARK  121  A    between atoms: _300  and  _301
REMARK  122  A    between atoms: _300  and  _303
REMARK  123  A    between atoms: _303  and  _304
REMARK  124  A    between atoms: _307  and  _309
REMARK  125  A    between atoms: _309  and  _310
REMARK  126  A    between atoms: _309  and  _312
REMARK  127  A    between atoms: _312  and  _313
REMARK  128  A    between atoms: _316  and  _318
REMARK  129  A    between atoms: _318  and  _319
REMARK  130  A    between atoms: _321  and  _323
REMARK  131  A    between atoms: _323  and  _324
REMARK  132  A    between atoms: _323  and  _326
REMARK  133  A    between atoms: _326  and  _327
REMARK  134  A    between atoms: _330  and  _332
REMARK  135  A    between atoms: _332  and  _333
REMARK  136  A    between atoms: _332  and  _335
REMARK  137  A    between atoms: _335  and  _336
REMARK  138  A    between atoms: _339  and  _341
REMARK  139  A    between atoms: _341  and  _342
REMARK  140  A    between atoms: _341  and  _344
REMARK  141  A    between atoms: _344  and  _345
REMARK  142  A    between atoms: _345  and  _346
REMARK  143  A    between atoms: _346  and  _347
REMARK  144  A    between atoms: _356  and  _358
REMARK  145  A    between atoms: _358  and  _359
REMARK  146  A    between atoms: _358  and  _361
REMARK  147  A    between atoms: _361  and  _362
REMARK  148  A    between atoms: _367  and  _368
REMARK  149  A    between atoms: _370  and  _372
REMARK  150  A    between atoms: _372  and  _373
REMARK  151  A    between atoms: _372  and  _375
REMARK  152  A    between atoms: _378  and  _380
REMARK  153  A    between atoms: _380  and  _381
REMARK  154  A    between atoms: _380  and  _383
REMARK  155  A    between atoms: _383  and  _384
REMARK  156  A    between atoms: _384  and  _385
REMARK  157  A    between atoms: _385  and  _386
REMARK  158  A    between atoms: _395  and  _397
REMARK  159  A    between atoms: _397  and  _398
REMARK  160  A    between atoms: _397  and  _400
REMARK  161  A    between atoms: _400  and  _401
REMARK  162  A    between atoms: _406  and  _407
REMARK  163  A    between atoms: _409  and  _411
REMARK  164  A    between atoms: _411  and  _412
REMARK  165  A    between atoms: _414  and  _416
REMARK  166  A    between atoms: _416  and  _417
REMARK  167  A    between atoms: _416  and  _419
REMARK  168  A    between atoms: _419  and  _420
REMARK  169  A    between atoms: _420  and  _723
REMARK  170  A    between atoms: _421  and  _423
REMARK  171  A    between atoms: _423  and  _424
REMARK  172  A    between atoms: _423  and  _426
REMARK  173  A    between atoms: _426  and  _427
REMARK  174  A    between atoms: _432  and  _434
REMARK  175  A    between atoms: _434  and  _435
REMARK  176  A    between atoms: _434  and  _437
REMARK  177  A    between atoms: _437  and  _438
REMARK  178  A    between atoms: _443  and  _444
REMARK  179  A    between atoms: _446  and  _448
REMARK  180  A    between atoms: _448  and  _449
REMARK  181  A    between atoms: _452  and  _454
REMARK  182  A    between atoms: _454  and  _455
REMARK  183  A    between atoms: _454  and  _457
REMARK  184  A    between atoms: _457  and  _458
REMARK  185  A    between atoms: _463  and  _464
REMARK  186  A    between atoms: _466  and  _468
REMARK  187  A    between atoms: _468  and  _469
REMARK  188  A    between atoms: _468  and  _471
REMARK  189  A    between atoms: _471  and  _472
REMARK  190  A    between atoms: _477  and  _478
REMARK  191  A    between atoms: _480  and  _482
REMARK  192  A    between atoms: _482  and  _483
REMARK  193  A    between atoms: _482  and  _485
REMARK  194  A    between atoms: _485  and  _486
REMARK  195  A    between atoms: _489  and  _491
REMARK  196  A    between atoms: _491  and  _492
REMARK  197  A    between atoms: _491  and  _494
REMARK  198  A    between atoms: _494  and  _495
REMARK  199  A    between atoms: _505  and  _507
REMARK  200  A    between atoms: _507  and  _508
REMARK  201  A    between atoms: _511  and  _513
REMARK  202  A    between atoms: _513  and  _514
REMARK  203  A    between atoms: _517  and  _519
REMARK  204  A    between atoms: _519  and  _520
REMARK  205  A    between atoms: _519  and  _522
REMARK  206  A    between atoms: _522  and  _523
REMARK  207  A    between atoms: _523  and  _524
REMARK  208  A    between atoms: _529  and  _531
REMARK  209  A    between atoms: _531  and  _532
REMARK  210  A    between atoms: _531  and  _534
REMARK  211  A    between atoms: _534  and  _535
REMARK  212  A    between atoms: _538  and  _540
REMARK  213  A    between atoms: _540  and  _541
REMARK  214  A    between atoms: _540  and  _543
REMARK  215  A    between atoms: _543  and  _544
REMARK  216  A    between atoms: _547  and  _549
REMARK  217  A    between atoms: _549  and  _550
REMARK  218  A    between atoms: _549  and  _552
REMARK  219  A    between atoms: _552  and  _553
REMARK  220  A    between atoms: _553  and  _554
REMARK  221  A    between atoms: _554  and  _555
REMARK  222  A    between atoms: _555  and  _556
REMARK  223  A    between atoms: _560  and  _562
REMARK  224  A    between atoms: _562  and  _563
REMARK  225  A    between atoms: _562  and  _565
REMARK  226  A    between atoms: _565  and  _566
REMARK  227  A    between atoms: _571  and  _573
REMARK  228  A    between atoms: _573  and  _574
REMARK  229  A    between atoms: _573  and  _576
REMARK  230  A    between atoms: _576  and  _577
REMARK  231  A    between atoms: _577  and  _578
REMARK  232  A    between atoms: _578  and  _579
REMARK  233  A    between atoms: _579  and  _580
REMARK  234  A    between atoms: _584  and  _586
REMARK  235  A    between atoms: _586  and  _587
REMARK  236  A    between atoms: _586  and  _589
REMARK  237  A    between atoms: _589  and  _590
REMARK  238  A    between atoms: _600  and  _602
REMARK  239  A    between atoms: _602  and  _603
REMARK  240  A    between atoms: _602  and  _605
REMARK  241  A    between atoms: _605  and  _606
REMARK  242  A    between atoms: _606  and  _607
REMARK  243  A    between atoms: _610  and  _612
REMARK  244  A    between atoms: _612  and  _613
REMARK  245  A    between atoms: _616  and  _618
REMARK  246  A    between atoms: _618  and  _619
REMARK  247  A    between atoms: _622  and  _624
REMARK  248  A    between atoms: _624  and  _625
REMARK  249  A    between atoms: _624  and  _627
REMARK  250  A    between atoms: _627  and  _628
REMARK  251  A    between atoms: _633  and  _635
REMARK  252  A    between atoms: _635  and  _636
REMARK  253  A    between atoms: _635  and  _638
REMARK  254  A    between atoms: _641  and  _643
REMARK  255  A    between atoms: _643  and  _644
REMARK  256  A    between atoms: _647  and  _649
REMARK  257  A    between atoms: _649  and  _650
REMARK  258  A    between atoms: _649  and  _652
REMARK  259  A    between atoms: _652  and  _653
REMARK  260  A    between atoms: _653  and  _654
REMARK  261  A    between atoms: _659  and  _661
REMARK  262  A    between atoms: _661  and  _662
REMARK  263  A    between atoms: _661  and  _664
REMARK  264  A    between atoms: _664  and  _665
REMARK  265  A    between atoms: _668  and  _670
REMARK  266  A    between atoms: _670  and  _671
REMARK  267  A    between atoms: _670  and  _673
REMARK  268  A    between atoms: _673  and  _674
REMARK  269  A    between atoms: _674  and  _675
REMARK  270  A    between atoms: _675  and  _676
REMARK  271  A    between atoms: _685  and  _687
REMARK  272  A    between atoms: _687  and  _688
REMARK  273  A    between atoms: _687  and  _690
REMARK  274  A    between atoms: _690  and  _691
REMARK  275  A    between atoms: _696  and  _697
REMARK  276  A    between atoms: _699  and  _701
REMARK  277  A    between atoms: _701  and  _702
REMARK  278  A    between atoms: _701  and  _704
REMARK  279  A    between atoms: _704  and  _705
REMARK  280  A    between atoms: _708  and  _710
REMARK  281  A    between atoms: _710  and  _711
REMARK  282  A    between atoms: _710  and  _713
REMARK  283  A    between atoms: _713  and  _714
REMARK  284  A    between atoms: _717  and  _719
REMARK  285  A    between atoms: _719  and  _720
REMARK  286  A    between atoms: _719  and  _722
REMARK  287  A    between atoms: _722  and  _723
REMARK  288  A    between atoms: _724  and  _726
REMARK  289  A    between atoms: _726  and  _727
REMARK  290  A    between atoms: _726  and  _729
REMARK  291  A    between atoms: _732  and  _734
REMARK  292  A    between atoms: _734  and  _735
REMARK  293  A    between atoms: _734  and  _737
REMARK  294  A    between atoms: _737  and  _738
REMARK  295  A    between atoms: _738  and  _739
REMARK  296  A    between atoms: _742  and  _744
REMARK  297  A    between atoms: _744  and  _745
REMARK  298  A    between atoms: _744  and  _747
REMARK  299  A    between atoms: _747  and  _748
REMARK  300  A    between atoms: _758  and  _760
REMARK  301  A    between atoms: _760  and  _761
REMARK  302  A    between atoms: _760  and  _763
REMARK  303  A    between atoms: _763  and  _764
REMARK  304  A    between atoms: _767  and  _769
REMARK  305  A    between atoms: _769  and  _770
REMARK  306  A    between atoms: _769  and  _772
REMARK  307  A    between atoms: _772  and  _773
REMARK  308  A    between atoms: _773  and  _774
REMARK  309  A    between atoms: _774  and  _775
REMARK  310  A    between atoms: _784  and  _786
REMARK  311  A    between atoms: _786  and  _787
REMARK  312  A    between atoms: _786  and  _789
REMARK  313  A    between atoms: _789  and  _790
REMARK  314  A    between atoms: _795  and  _796
REMARK                            x       y       z     vdW  Elec       q    Type
REMARK                         _______ _______ _______ _____ _____    ______ ____
ROOT
ATOM      1  O   HOH     1      44.274   1.553  24.846  0.00  0.00    +0.000 OA
ENDROOT
TORSDOF 0
REMARK  Name = ../refined-set-2016/3qfd/3qfd_pocket.pdb
REMARK  314 active torsions:
REMARK  status: ('A' for Active; 'I' for Inactive)
REMARK    1  A    between atoms: _1  and  _3
REMARK    2  A    between atoms: _3  and  _4
REMARK    3  A    between atoms: _3  and  _6
REMARK    4  A    between atoms: _6  and  _7
REMARK    5  A    between atoms: _7  and  _8
REMARK    6  A    between atoms: _10  and  _12
REMARK    7  A    between atoms: _12  and  _13
REMARK    8  A    between atoms: _12  and  _15
REMARK    9  A    between atoms: _15  and  _16
REMARK   10  A    between atoms: _16  and  _17
REMARK   11  A    between atoms: _17  and  _18
REMARK   12  A    between atoms: _27  and  _29
REMARK   13  A    between atoms: _29  and  _30
REMARK   14  A    between atoms: _29  and  _32
REMARK   15  A    between atoms: _32  and  _33
REMARK   16  A    between atoms: _38  and  _39
REMARK   17  A    between atoms: _41  and  _43
REMARK   18  A    between atoms: _43  and  _44
REMARK   19  A    between atoms: _43  and  _46
REMARK   20  A    between atoms: _46  and  _47
REMARK   21  A    between atoms: _53  and  _55
REMARK   22  A    between atoms: _55  and  _56
REMARK   23  A    between atoms: _55  and  _58
REMARK   24  A    between atoms: _58  and  _59
REMARK   25  A    between atoms: _65  and  _67
REMARK   26  A    between atoms: _67  and  _68
REMARK   27  A    between atoms: _71  and  _73
REMARK   28  A    between atoms: _73  and  _74
REMARK   29  A    between atoms: _73  and  _76
REMARK   30  A    between atoms: _79  and  _81
REMARK   31  A    between atoms: _81  and  _82
REMARK   32  A    between atoms: _84  and  _86
REMARK   33  A    between atoms: _86  and  _87
REMARK   34  A    between atoms: _86  and  _89
REMARK   35  A    between atoms: _92  and  _94
REMARK   36  A    between atoms: _94  and  _95
REMARK   37  A    between atoms: _94  and  _97
REMARK   38  A    between atoms: _97  and  _98
REMARK   39  A    between atoms: _104  and  _106
REMARK   40  A    between atoms: _106  and  _107
REMARK   41  A    between atoms: _106  and  _109
REMARK   42  A    between atoms: _112  and  _114
REMARK   43  A    between atoms: _114  and  _115
REMARK   44  A    between atoms: _114  and  _117
REMARK   45  A    between atoms: _117  and  _118
REMARK   46  A    between atoms: _118  and  _119
REMARK   47  A    between atoms: _121  and  _123
REMARK   48  A    between atoms: _123  and  _124
REMARK   49  A    between atoms: _123  and  _126
REMARK   50  A    between atoms: _126  and  _127
REMARK   51  A    between atoms: _130  and  _132
REMARK   52  A    between atoms: _132  and  _133
REMARK   53  A    between atoms: _132  and  _135
REMARK   54  A    between atoms: _135  and  _136
REMARK   55  A    between atoms: _136  and  _137
REMARK   56  A    between atoms: _140  and  _142
REMARK   57  A    between atoms: _142  and  _143
REMARK   58  A    between atoms: _142  and  _145
REMARK   59  A    between atoms: _145  and  _146
REMARK   60  A    between atoms: _151  and  _152
REMARK   61  A    between atoms: _154  and  _156
REMARK   62  A    between atoms: _156  and  _157
REMARK   63  A    between atoms: _159  and  _161
REMARK   64  A    between atoms: _161  and  _162
REMARK   65  A    between atoms: _161  and  _164
REMARK   66  A    between atoms: _164  and  _165
REMARK   67  A    between atoms: _165  and  _166
REMARK   68  A    between atoms: _169  and  _171
REMARK   69  A    between atoms: _171  and  _172
REMARK   70  A    between atoms: _171  and  _174
REMARK   71  A    between atoms: _174  and  _175
REMARK   72  A    between atoms: _178  and  _180
REMARK   73  A    between atoms: _180  and  _181
REMARK   74  A    between atoms: _180  and  _183
REMARK   75  A    between atoms: _183  and  _184
REMARK   76  A    between atoms: _184  and  _185
REMARK   77  A    between atoms: _185  and  _186
REMARK   78  A    between atoms: _195  and  _197
REMARK   79  A    between atoms: _197  and  _198
REMARK   80  A    between atoms: _197  and  _200
REMARK   81  A    between atoms: _200  and  _201
REMARK   82  A    between atoms: _201  and  _202
REMARK   83  A    between atoms: _202  and  _203
REMARK   84  A    between atoms: _203  and  _204
REMARK   85  A    between atoms: _208  and  _210
REMARK   86  A    between atoms: _210  and  _211
REMARK   87  A    between atoms: _210  and  _213
REMARK   88  A    between atoms: _216  and  _218
REMARK   89  A    between atoms: _218  and  _219
REMARK   90  A    between atoms: _222  and  _224
REMARK   91  A    between atoms: _224  and  _225
REMARK   92  A    between atoms: _224  and  _227
REMARK   93  A    between atoms: _227  and  _228
REMARK   94  A    between atoms: _233  and  _235
REMARK   95  A    between atoms: _235  and  _236
REMARK   96  A    between atoms: _235  and  _238
REMARK   97  A    between atoms: _238  and  _239
REMARK   98  A    between atoms: _241  and  _243
REMARK   99  A    between atoms: _243  and  _244
REMARK  100  A    between atoms: _243  and  _246
REMARK  101  A    between atoms: _246  and  _247
REMARK  102  A    between atoms: _247  and  _248
REMARK  103  A    between atoms: _253  and  _255
REMARK  104  A    between atoms: _255  and  _256
REMARK  105  A    between atoms: _255  and  _258
REMARK  106  A    between atoms: _258  and  _259
REMARK  107  A    between atoms: _262  and  _264
REMARK  108  A    between atoms: _264  and  _265
REMARK  109  A    between atoms: _264  and  _267
REMARK  110  A    between atoms: _267  and  _268
REMARK  111  A    between atoms: _273  and  _275
REMARK  112  A    between atoms: _275  and  _276
REMARK  113  A    between atoms: _275  and  _278
REMARK  114  A    between atoms: _278  and  _279
REMARK  115  A    between atoms: _279  and  _280
REMARK  116  A    between atoms: _280  and  _281
REMARK  117  A    between atoms: _290  and  _292
REMARK  118  A    between atoms: _292  and  _293
REMARK  119  A    between atoms: _292  and  _295
REMARK  120  A    between atoms: _298  and  _300
REMARK  121  A    between atoms: _300  and  _301
REMARK  122  A    between atoms: _300  and  _303
REMARK  123  A    between atoms: _303  and  _304
REMARK  124  A    between atoms: _307  and  _309
REMARK  125  A    between atoms: _309  and  _310
REMARK  126  A    between atoms: _309  and  _312
REMARK  127  A    between atoms: _312  and  _313
REMARK  128  A    between atoms: _316  and  _318
REMARK  129  A    between atoms: _318  and  _319
REMARK  130  A    between atoms: _321  and  _323
REMARK  131  A    between atoms: _323  and  _324
REMARK  132  A    between atoms: _323  and  _326
REMARK  133  A    between atoms: _326  and  _327
REMARK  134  A    between atoms: _330  and  _332
REMARK  135  A    between atoms: _332  and  _333
REMARK  136  A    between atoms: _332  and  _335
REMARK  137  A    between atoms: _335  and  _336
REMARK  138  A    between atoms: _339  and  _341
REMARK  139  A    between atoms: _341  and  _342
REMARK  140  A    between atoms: _341  and  _344
REMARK  141  A    between atoms: _344  and  _345
REMARK  142  A    between atoms: _345  and  _346
REMARK  143  A    between atoms: _346  and  _347
REMARK  144  A    between atoms: _356  and  _358
REMARK  145  A    between atoms: _358  and  _359
REMARK  146  A    between atoms: _358  and  _361
REMARK  147  A    between atoms: _361  and  _362
REMARK  148  A    between atoms: _367  and  _368
REMARK  149  A    between atoms: _370  and  _372
REMARK  150  A    between atoms: _372  and  _373
REMARK  151  A    between atoms: _372  and  _375
REMARK  152  A    between atoms: _378  and  _380
REMARK  153  A    between atoms: _380  and  _381
REMARK  154  A    between atoms: _380  and  _383
REMARK  155  A    between atoms: _383  and  _384
REMARK  156  A    between atoms: _384  and  _385
REMARK  157  A    between atoms: _385  and  _386
REMARK  158  A    between atoms: _395  and  _397
REMARK  159  A    between atoms: _397  and  _398
REMARK  160  A    between atoms: _397  and  _400
REMARK  161  A    between atoms: _400  and  _401
REMARK  162  A    between atoms: _406  and  _407
REMARK  163  A    between atoms: _409  and  _411
REMARK  164  A    between atoms: _411  and  _412
REMARK  165  A    between atoms: _414  and  _416
REMARK  166  A    between atoms: _416  and  _417
REMARK  167  A    between atoms: _416  and  _419
REMARK  168  A    between atoms: _419  and  _420
REMARK  169  A    between atoms: _420  and  _723
REMARK  170  A    between atoms: _421  and  _423
REMARK  171  A    between atoms: _423  and  _424
REMARK  172  A    between atoms: _423  and  _426
REMARK  173  A    between atoms: _426  and  _427
REMARK  174  A    between atoms: _432  and  _434
REMARK  175  A    between atoms: _434  and  _435
REMARK  176  A    between atoms: _434  and  _437
REMARK  177  A    between atoms: _437  and  _438
REMARK  178  A    between atoms: _443  and  _444
REMARK  179  A    between atoms: _446  and  _448
REMARK  180  A    between atoms: _448  and  _449
REMARK  181  A    between atoms: _452  and  _454
REMARK  182  A    between atoms: _454  and  _455
REMARK  183  A    between atoms: _454  and  _457
REMARK  184  A    between atoms: _457  and  _458
REMARK  185  A    between atoms: _463  and  _464
REMARK  186  A    between atoms: _466  and  _468
REMARK  187  A    between atoms: _468  and  _469
REMARK  188  A    between atoms: _468  and  _471
REMARK  189  A    between atoms: _471  and  _472
REMARK  190  A    between atoms: _477  and  _478
REMARK  191  A    between atoms: _480  and  _482
REMARK  192  A    between atoms: _482  and  _483
REMARK  193  A    between atoms: _482  and  _485
REMARK  194  A    between atoms: _485  and  _486
REMARK  195  A    between atoms: _489  and  _491
REMARK  196  A    between atoms: _491  and  _492
REMARK  197  A    between atoms: _491  and  _494
REMARK  198  A    between atoms: _494  and  _495
REMARK  199  A    between atoms: _505  and  _507
REMARK  200  A    between atoms: _507  and  _508
REMARK  201  A    between atoms: _511  and  _513
REMARK  202  A    between atoms: _513  and  _514
REMARK  203  A    between atoms: _517  and  _519
REMARK  204  A    between atoms: _519  and  _520
REMARK  205  A    between atoms: _519  and  _522
REMARK  206  A    between atoms: _522  and  _523
REMARK  207  A    between atoms: _523  and  _524
REMARK  208  A    between atoms: _529  and  _531
REMARK  209  A    between atoms: _531  and  _532
REMARK  210  A    between atoms: _531  and  _534
REMARK  211  A    between atoms: _534  and  _535
REMARK  212  A    between atoms: _538  and  _540
REMARK  213  A    between atoms: _540  and  _541
REMARK  214  A    between atoms: _540  and  _543
REMARK  215  A    between atoms: _543  and  _544
REMARK  216  A    between atoms: _547  and  _549
REMARK  217  A    between atoms: _549  and  _550
REMARK  218  A    between atoms: _549  and  _552
REMARK  219  A    between atoms: _552  and  _553
REMARK  220  A    between atoms: _553  and  _554
REMARK  221  A    between atoms: _554  and  _555
REMARK  222  A    between atoms: _555  and  _556
REMARK  223  A    between atoms: _560  and  _562
REMARK  224  A    between atoms: _562  and  _563
REMARK  225  A    between atoms: _562  and  _565
REMARK  226  A    between atoms: _565  and  _566
REMARK  227  A    between atoms: _571  and  _573
REMARK  228  A    between atoms: _573  and  _574
REMARK  229  A    between atoms: _573  and  _576
REMARK  230  A    between atoms: _576  and  _577
REMARK  231  A    between atoms: _577  and  _578
REMARK  232  A    between atoms: _578  and  _579
REMARK  233  A    between atoms: _579  and  _580
REMARK  234  A    between atoms: _584  and  _586
REMARK  235  A    between atoms: _586  and  _587
REMARK  236  A    between atoms: _586  and  _589
REMARK  237  A    between atoms: _589  and  _590
REMARK  238  A    between atoms: _600  and  _602
REMARK  239  A    between atoms: _602  and  _603
REMARK  240  A    between atoms: _602  and  _605
REMARK  241  A    between atoms: _605  and  _606
REMARK  242  A    between atoms: _606  and  _607
REMARK  243  A    between atoms: _610  and  _612
REMARK  244  A    between atoms: _612  and  _613
REMARK  245  A    between atoms: _616  and  _618
REMARK  246  A    between atoms: _618  and  _619
REMARK  247  A    between atoms: _622  and  _624
REMARK  248  A    between atoms: _624  and  _625
REMARK  249  A    between atoms: _624  and  _627
REMARK  250  A    between atoms: _627  and  _628
REMARK  251  A    between atoms: _633  and  _635
REMARK  252  A    between atoms: _635  and  _636
REMARK  253  A    between atoms: _635  and  _638
REMARK  254  A    between atoms: _641  and  _643
REMARK  255  A    between atoms: _643  and  _644
REMARK  256  A    between atoms: _647  and  _649
REMARK  257  A    between atoms: _649  and  _650
REMARK  258  A    between atoms: _649  and  _652
REMARK  259  A    between atoms: _652  and  _653
REMARK  260  A    between atoms: _653  and  _654
REMARK  261  A    between atoms: _659  and  _661
REMARK  262  A    between atoms: _661  and  _662
REMARK  263  A    between atoms: _661  and  _664
REMARK  264  A    between atoms: _664  and  _665
REMARK  265  A    between atoms: _668  and  _670
REMARK  266  A    between atoms: _670  and  _671
REMARK  267  A    between atoms: _670  and  _673
REMARK  268  A    between atoms: _673  and  _674
REMARK  269  A    between atoms: _674  and  _675
REMARK  270  A    between atoms: _675  and  _676
REMARK  271  A    between atoms: _685  and  _687
REMARK  272  A    between atoms: _687  and  _688
REMARK  273  A    between atoms: _687  and  _690
REMARK  274  A    between atoms: _690  and  _691
REMARK  275  A    between atoms: _696  and  _697
REMARK  276  A    between atoms: _699  and  _701
REMARK  277  A    between atoms: _701  and  _702
REMARK  278  A    between atoms: _701  and  _704
REMARK  279  A    between atoms: _704  and  _705
REMARK  280  A    between atoms: _708  and  _710
REMARK  281  A    between atoms: _710  and  _711
REMARK  282  A    between atoms: _710  and  _713
REMARK  283  A    between atoms: _713  and  _714
REMARK  284  A    between atoms: _717  and  _719
REMARK  285  A    between atoms: _719  and  _720
REMARK  286  A    between atoms: _719  and  _722
REMARK  287  A    between atoms: _722  and  _723
REMARK  288  A    between atoms: _724  and  _726
REMARK  289  A    between atoms: _726  and  _727
REMARK  290  A    between atoms: _726  and  _729
REMARK  291  A    between atoms: _732  and  _734
REMARK  292  A    between atoms: _734  and  _735
REMARK  293  A    between atoms: _734  and  _737
REMARK  294  A    between atoms: _737  and  _738
REMARK  295  A    between atoms: _738  and  _739
REMARK  296  A    between atoms: _742  and  _744
REMARK  297  A    between atoms: _744  and  _745
REMARK  298  A    between atoms: _744  and  _747
REMARK  299  A    between atoms: _747  and  _748
REMARK  300  A    between atoms: _758  and  _760
REMARK  301  A    between atoms: _760  and  _761
REMARK  302  A    between atoms: _760  and  _763
REMARK  303  A    between atoms: _763  and  _764
REMARK  304  A    between atoms: _767  and  _769
REMARK  305  A    between atoms: _769  and  _770
REMARK  306  A    between atoms: _769  and  _772
REMARK  307  A    between atoms: _772  and  _773
REMARK  308  A    between atoms: _773  and  _774
REMARK  309  A    between atoms: _774  and  _775
REMARK  310  A    between atoms: _784  and  _786
REMARK  311  A    between atoms: _786  and  _787
REMARK  312  A    between atoms: _786  and  _789
REMARK  313  A    between atoms: _789  and  _790
REMARK  314  A    between atoms: _795  and  _796
REMARK                            x       y       z     vdW  Elec       q    Type
REMARK                         _______ _______ _______ _____ _____    ______ ____
ROOT
ATOM      1  O   HOH     1      43.764  -6.147  31.169  0.00  0.00    +0.000 OA
ENDROOT
TORSDOF 0
REMARK  Name = ../refined-set-2016/3qfd/3qfd_pocket.pdb
REMARK  314 active torsions:
REMARK  status: ('A' for Active; 'I' for Inactive)
REMARK    1  A    between atoms: _1  and  _3
REMARK    2  A    between atoms: _3  and  _4
REMARK    3  A    between atoms: _3  and  _6
REMARK    4  A    between atoms: _6  and  _7
REMARK    5  A    between atoms: _7  and  _8
REMARK    6  A    between atoms: _10  and  _12
REMARK    7  A    between atoms: _12  and  _13
REMARK    8  A    between atoms: _12  and  _15
REMARK    9  A    between atoms: _15  and  _16
REMARK   10  A    between atoms: _16  and  _17
REMARK   11  A    between atoms: _17  and  _18
REMARK   12  A    between atoms: _27  and  _29
REMARK   13  A    between atoms: _29  and  _30
REMARK   14  A    between atoms: _29  and  _32
REMARK   15  A    between atoms: _32  and  _33
REMARK   16  A    between atoms: _38  and  _39
REMARK   17  A    between atoms: _41  and  _43
REMARK   18  A    between atoms: _43  and  _44
REMARK   19  A    between atoms: _43  and  _46
REMARK   20  A    between atoms: _46  and  _47
REMARK   21  A    between atoms: _53  and  _55
REMARK   22  A    between atoms: _55  and  _56
REMARK   23  A    between atoms: _55  and  _58
REMARK   24  A    between atoms: _58  and  _59
REMARK   25  A    between atoms: _65  and  _67
REMARK   26  A    between atoms: _67  and  _68
REMARK   27  A    between atoms: _71  and  _73
REMARK   28  A    between atoms: _73  and  _74
REMARK   29  A    between atoms: _73  and  _76
REMARK   30  A    between atoms: _79  and  _81
REMARK   31  A    between atoms: _81  and  _82
REMARK   32  A    between atoms: _84  and  _86
REMARK   33  A    between atoms: _86  and  _87
REMARK   34  A    between atoms: _86  and  _89
REMARK   35  A    between atoms: _92  and  _94
REMARK   36  A    between atoms: _94  and  _95
REMARK   37  A    between atoms: _94  and  _97
REMARK   38  A    between atoms: _97  and  _98
REMARK   39  A    between atoms: _104  and  _106
REMARK   40  A    between atoms: _106  and  _107
REMARK   41  A    between atoms: _106  and  _109
REMARK   42  A    between atoms: _112  and  _114
REMARK   43  A    between atoms: _114  and  _115
REMARK   44  A    between atoms: _114  and  _117
REMARK   45  A    between atoms: _117  and  _118
REMARK   46  A    between atoms: _118  and  _119
REMARK   47  A    between atoms: _121  and  _123
REMARK   48  A    between atoms: _123  and  _124
REMARK   49  A    between atoms: _123  and  _126
REMARK   50  A    between atoms: _126  and  _127
REMARK   51  A    between atoms: _130  and  _132
REMARK   52  A    between atoms: _132  and  _133
REMARK   53  A    between atoms: _132  and  _135
REMARK   54  A    between atoms: _135  and  _136
REMARK   55  A    between atoms: _136  and  _137
REMARK   56  A    between atoms: _140  and  _142
REMARK   57  A    between atoms: _142  and  _143
REMARK   58  A    between atoms: _142  and  _145
REMARK   59  A    between atoms: _145  and  _146
REMARK   60  A    between atoms: _151  and  _152
REMARK   61  A    between atoms: _154  and  _156
REMARK   62  A    between atoms: _156  and  _157
REMARK   63  A    between atoms: _159  and  _161
REMARK   64  A    between atoms: _161  and  _162
REMARK   65  A    between atoms: _161  and  _164
REMARK   66  A    between atoms: _164  and  _165
REMARK   67  A    between atoms: _165  and  _166
REMARK   68  A    between atoms: _169  and  _171
REMARK   69  A    between atoms: _171  and  _172
REMARK   70  A    between atoms: _171  and  _174
REMARK   71  A    between atoms: _174  and  _175
REMARK   72  A    between atoms: _178  and  _180
REMARK   73  A    between atoms: _180  and  _181
REMARK   74  A    between atoms: _180  and  _183
REMARK   75  A    between atoms: _183  and  _184
REMARK   76  A    between atoms: _184  and  _185
REMARK   77  A    between atoms: _185  and  _186
REMARK   78  A    between atoms: _195  and  _197
REMARK   79  A    between atoms: _197  and  _198
REMARK   80  A    between atoms: _197  and  _200
REMARK   81  A    between atoms: _200  and  _201
REMARK   82  A    between atoms: _201  and  _202
REMARK   83  A    between atoms: _202  and  _203
REMARK   84  A    between atoms: _203  and  _204
REMARK   85  A    between atoms: _208  and  _210
REMARK   86  A    between atoms: _210  and  _211
REMARK   87  A    between atoms: _210  and  _213
REMARK   88  A    between atoms: _216  and  _218
REMARK   89  A    between atoms: _218  and  _219
REMARK   90  A    between atoms: _222  and  _224
REMARK   91  A    between atoms: _224  and  _225
REMARK   92  A    between atoms: _224  and  _227
REMARK   93  A    between atoms: _227  and  _228
REMARK   94  A    between atoms: _233  and  _235
REMARK   95  A    between atoms: _235  and  _236
REMARK   96  A    between atoms: _235  and  _238
REMARK   97  A    between atoms: _238  and  _239
REMARK   98  A    between atoms: _241  and  _243
REMARK   99  A    between atoms: _243  and  _244
REMARK  100  A    between atoms: _243  and  _246
REMARK  101  A    between atoms: _246  and  _247
REMARK  102  A    between atoms: _247  and  _248
REMARK  103  A    between atoms: _253  and  _255
REMARK  104  A    between atoms: _255  and  _256
REMARK  105  A    between atoms: _255  and  _258
REMARK  106  A    between atoms: _258  and  _259
REMARK  107  A    between atoms: _262  and  _264
REMARK  108  A    between atoms: _264  and  _265
REMARK  109  A    between atoms: _264  and  _267
REMARK  110  A    between atoms: _267  and  _268
REMARK  111  A    between atoms: _273  and  _275
REMARK  112  A    between atoms: _275  and  _276
REMARK  113  A    between atoms: _275  and  _278
REMARK  114  A    between atoms: _278  and  _279
REMARK  115  A    between atoms: _279  and  _280
REMARK  116  A    between atoms: _280  and  _281
REMARK  117  A    between atoms: _290  and  _292
REMARK  118  A    between atoms: _292  and  _293
REMARK  119  A    between atoms: _292  and  _295
REMARK  120  A    between atoms: _298  and  _300
REMARK  121  A    between atoms: _300  and  _301
REMARK  122  A    between atoms: _300  and  _303
REMARK  123  A    between atoms: _303  and  _304
REMARK  124  A    between atoms: _307  and  _309
REMARK  125  A    between atoms: _309  and  _310
REMARK  126  A    between atoms: _309  and  _312
REMARK  127  A    between atoms: _312  and  _313
REMARK  128  A    between atoms: _316  and  _318
REMARK  129  A    between atoms: _318  and  _319
REMARK  130  A    between atoms: _321  and  _323
REMARK  131  A    between atoms: _323  and  _324
REMARK  132  A    between atoms: _323  and  _326
REMARK  133  A    between atoms: _326  and  _327
REMARK  134  A    between atoms: _330  and  _332
REMARK  135  A    between atoms: _332  and  _333
REMARK  136  A    between atoms: _332  and  _335
REMARK  137  A    between atoms: _335  and  _336
REMARK  138  A    between atoms: _339  and  _341
REMARK  139  A    between atoms: _341  and  _342
REMARK  140  A    between atoms: _341  and  _344
REMARK  141  A    between atoms: _344  and  _345
REMARK  142  A    between atoms: _345  and  _346
REMARK  143  A    between atoms: _346  and  _347
REMARK  144  A    between atoms: _356  and  _358
REMARK  145  A    between atoms: _358  and  _359
REMARK  146  A    between atoms: _358  and  _361
REMARK  147  A    between atoms: _361  and  _362
REMARK  148  A    between atoms: _367  and  _368
REMARK  149  A    between atoms: _370  and  _372
REMARK  150  A    between atoms: _372  and  _373
REMARK  151  A    between atoms: _372  and  _375
REMARK  152  A    between atoms: _378  and  _380
REMARK  153  A    between atoms: _380  and  _381
REMARK  154  A    between atoms: _380  and  _383
REMARK  155  A    between atoms: _383  and  _384
REMARK  156  A    between atoms: _384  and  _385
REMARK  157  A    between atoms: _385  and  _386
REMARK  158  A    between atoms: _395  and  _397
REMARK  159  A    between atoms: _397  and  _398
REMARK  160  A    between atoms: _397  and  _400
REMARK  161  A    between atoms: _400  and  _401
REMARK  162  A    between atoms: _406  and  _407
REMARK  163  A    between atoms: _409  and  _411
REMARK  164  A    between atoms: _411  and  _412
REMARK  165  A    between atoms: _414  and  _416
REMARK  166  A    between atoms: _416  and  _417
REMARK  167  A    between atoms: _416  and  _419
REMARK  168  A    between atoms: _419  and  _420
REMARK  169  A    between atoms: _420  and  _723
REMARK  170  A    between atoms: _421  and  _423
REMARK  171  A    between atoms: _423  and  _424
REMARK  172  A    between atoms: _423  and  _426
REMARK  173  A    between atoms: _426  and  _427
REMARK  174  A    between atoms: _432  and  _434
REMARK  175  A    between atoms: _434  and  _435
REMARK  176  A    between atoms: _434  and  _437
REMARK  177  A    between atoms: _437  and  _438
REMARK  178  A    between atoms: _443  and  _444
REMARK  179  A    between atoms: _446  and  _448
REMARK  180  A    between atoms: _448  and  _449
REMARK  181  A    between atoms: _452  and  _454
REMARK  182  A    between atoms: _454  and  _455
REMARK  183  A    between atoms: _454  and  _457
REMARK  184  A    between atoms: _457  and  _458
REMARK  185  A    between atoms: _463  and  _464
REMARK  186  A    between atoms: _466  and  _468
REMARK  187  A    between atoms: _468  and  _469
REMARK  188  A    between atoms: _468  and  _471
REMARK  189  A    between atoms: _471  and  _472
REMARK  190  A    between atoms: _477  and  _478
REMARK  191  A    between atoms: _480  and  _482
REMARK  192  A    between atoms: _482  and  _483
REMARK  193  A    between atoms: _482  and  _485
REMARK  194  A    between atoms: _485  and  _486
REMARK  195  A    between atoms: _489  and  _491
REMARK  196  A    between atoms: _491  and  _492
REMARK  197  A    between atoms: _491  and  _494
REMARK  198  A    between atoms: _494  and  _495
REMARK  199  A    between atoms: _505  and  _507
REMARK  200  A    between atoms: _507  and  _508
REMARK  201  A    between atoms: _511  and  _513
REMARK  202  A    between atoms: _513  and  _514
REMARK  203  A    between atoms: _517  and  _519
REMARK  204  A    between atoms: _519  and  _520
REMARK  205  A    between atoms: _519  and  _522
REMARK  206  A    between atoms: _522  and  _523
REMARK  207  A    between atoms: _523  and  _524
REMARK  208  A    between atoms: _529  and  _531
REMARK  209  A    between atoms: _531  and  _532
REMARK  210  A    between atoms: _531  and  _534
REMARK  211  A    between atoms: _534  and  _535
REMARK  212  A    between atoms: _538  and  _540
REMARK  213  A    between atoms: _540  and  _541
REMARK  214  A    between atoms: _540  and  _543
REMARK  215  A    between atoms: _543  and  _544
REMARK  216  A    between atoms: _547  and  _549
REMARK  217  A    between atoms: _549  and  _550
REMARK  218  A    between atoms: _549  and  _552
REMARK  219  A    between atoms: _552  and  _553
REMARK  220  A    between atoms: _553  and  _554
REMARK  221  A    between atoms: _554  and  _555
REMARK  222  A    between atoms: _555  and  _556
REMARK  223  A    between atoms: _560  and  _562
REMARK  224  A    between atoms: _562  and  _563
REMARK  225  A    between atoms: _562  and  _565
REMARK  226  A    between atoms: _565  and  _566
REMARK  227  A    between atoms: _571  and  _573
REMARK  228  A    between atoms: _573  and  _574
REMARK  229  A    between atoms: _573  and  _576
REMARK  230  A    between atoms: _576  and  _577
REMARK  231  A    between atoms: _577  and  _578
REMARK  232  A    between atoms: _578  and  _579
REMARK  233  A    between atoms: _579  and  _580
REMARK  234  A    between atoms: _584  and  _586
REMARK  235  A    between atoms: _586  and  _587
REMARK  236  A    between atoms: _586  and  _589
REMARK  237  A    between atoms: _589  and  _590
REMARK  238  A    between atoms: _600  and  _602
REMARK  239  A    between atoms: _602  and  _603
REMARK  240  A    between atoms: _602  and  _605
REMARK  241  A    between atoms: _605  and  _606
REMARK  242  A    between atoms: _606  and  _607
REMARK  243  A    between atoms: _610  and  _612
REMARK  244  A    between atoms: _612  and  _613
REMARK  245  A    between atoms: _616  and  _618
REMARK  246  A    between atoms: _618  and  _619
REMARK  247  A    between atoms: _622  and  _624
REMARK  248  A    between atoms: _624  and  _625
REMARK  249  A    between atoms: _624  and  _627
REMARK  250  A    between atoms: _627  and  _628
REMARK  251  A    between atoms: _633  and  _635
REMARK  252  A    between atoms: _635  and  _636
REMARK  253  A    between atoms: _635  and  _638
REMARK  254  A    between atoms: _641  and  _643
REMARK  255  A    between atoms: _643  and  _644
REMARK  256  A    between atoms: _647  and  _649
REMARK  257  A    between atoms: _649  and  _650
REMARK  258  A    between atoms: _649  and  _652
REMARK  259  A    between atoms: _652  and  _653
REMARK  260  A    between atoms: _653  and  _654
REMARK  261  A    between atoms: _659  and  _661
REMARK  262  A    between atoms: _661  and  _662
REMARK  263  A    between atoms: _661  and  _664
REMARK  264  A    between atoms: _664  and  _665
REMARK  265  A    between atoms: _668  and  _670
REMARK  266  A    between atoms: _670  and  _671
REMARK  267  A    between atoms: _670  and  _673
REMARK  268  A    between atoms: _673  and  _674
REMARK  269  A    between atoms: _674  and  _675
REMARK  270  A    between atoms: _675  and  _676
REMARK  271  A    between atoms: _685  and  _687
REMARK  272  A    between atoms: _687  and  _688
REMARK  273  A    between atoms: _687  and  _690
REMARK  274  A    between atoms: _690  and  _691
REMARK  275  A    between atoms: _696  and  _697
REMARK  276  A    between atoms: _699  and  _701
REMARK  277  A    between atoms: _701  and  _702
REMARK  278  A    between atoms: _701  and  _704
REMARK  279  A    between atoms: _704  and  _705
REMARK  280  A    between atoms: _708  and  _710
REMARK  281  A    between atoms: _710  and  _711
REMARK  282  A    between atoms: _710  and  _713
REMARK  283  A    between atoms: _713  and  _714
REMARK  284  A    between atoms: _717  and  _719
REMARK  285  A    between atoms: _719  and  _720
REMARK  286  A    between atoms: _719  and  _722
REMARK  287  A    between atoms: _722  and  _723
REMARK  288  A    between atoms: _724  and  _726
REMARK  289  A    between atoms: _726  and  _727
REMARK  290  A    between atoms: _726  and  _729
REMARK  291  A    between atoms: _732  and  _734
REMARK  292  A    between atoms: _734  and  _735
REMARK  293  A    between atoms: _734  and  _737
REMARK  294  A    between atoms: _737  and  _738
REMARK  295  A    between atoms: _738  and  _739
REMARK  296  A    between atoms: _742  and  _744
REMARK  297  A    between atoms: _744  and  _745
REMARK  298  A    between atoms: _744  and  _747
REMARK  299  A    between atoms: _747  and  _748
REMARK  300  A    between atoms: _758  and  _760
REMARK  301  A    between atoms: _760  and  _761
REMARK  302  A    between atoms: _760  and  _763
REMARK  303  A    between atoms: _763  and  _764
REMARK  304  A    between atoms: _767  and  _769
REMARK  305  A    between atoms: _769  and  _770
REMARK  306  A    between atoms: _769  and  _772
REMARK  307  A    between atoms: _772  and  _773
REMARK  308  A    between atoms: _773  and  _774
REMARK  309  A    between atoms: _774  and  _775
REMARK  310  A    between atoms: _784  and  _786
REMARK  311  A    between atoms: _786  and  _787
REMARK  312  A    between atoms: _786  and  _789
REMARK  313  A    between atoms: _789  and  _790
REMARK  314  A    between atoms: _795  and  _796
REMARK                            x       y       z     vdW  Elec       q    Type
REMARK                         _______ _______ _______ _____ _____    ______ ____
ROOT
ATOM      1  O   HOH     1      43.525   0.879  29.442  0.00  0.00    +0.000 OA
ENDROOT
TORSDOF 0
REMARK  Name = ../refined-set-2016/3qfd/3qfd_pocket.pdb
REMARK  314 active torsions:
REMARK  status: ('A' for Active; 'I' for Inactive)
REMARK    1  A    between atoms: _1  and  _3
REMARK    2  A    between atoms: _3  and  _4
REMARK    3  A    between atoms: _3  and  _6
REMARK    4  A    between atoms: _6  and  _7
REMARK    5  A    between atoms: _7  and  _8
REMARK    6  A    between atoms: _10  and  _12
REMARK    7  A    between atoms: _12  and  _13
REMARK    8  A    between atoms: _12  and  _15
REMARK    9  A    between atoms: _15  and  _16
REMARK   10  A    between atoms: _16  and  _17
REMARK   11  A    between atoms: _17  and  _18
REMARK   12  A    between atoms: _27  and  _29
REMARK   13  A    between atoms: _29  and  _30
REMARK   14  A    between atoms: _29  and  _32
REMARK   15  A    between atoms: _32  and  _33
REMARK   16  A    between atoms: _38  and  _39
REMARK   17  A    between atoms: _41  and  _43
REMARK   18  A    between atoms: _43  and  _44
REMARK   19  A    between atoms: _43  and  _46
REMARK   20  A    between atoms: _46  and  _47
REMARK   21  A    between atoms: _53  and  _55
REMARK   22  A    between atoms: _55  and  _56
REMARK   23  A    between atoms: _55  and  _58
REMARK   24  A    between atoms: _58  and  _59
REMARK   25  A    between atoms: _65  and  _67
REMARK   26  A    between atoms: _67  and  _68
REMARK   27  A    between atoms: _71  and  _73
REMARK   28  A    between atoms: _73  and  _74
REMARK   29  A    between atoms: _73  and  _76
REMARK   30  A    between atoms: _79  and  _81
REMARK   31  A    between atoms: _81  and  _82
REMARK   32  A    between atoms: _84  and  _86
REMARK   33  A    between atoms: _86  and  _87
REMARK   34  A    between atoms: _86  and  _89
REMARK   35  A    between atoms: _92  and  _94
REMARK   36  A    between atoms: _94  and  _95
REMARK   37  A    between atoms: _94  and  _97
REMARK   38  A    between atoms: _97  and  _98
REMARK   39  A    between atoms: _104  and  _106
REMARK   40  A    between atoms: _106  and  _107
REMARK   41  A    between atoms: _106  and  _109
REMARK   42  A    between atoms: _112  and  _114
REMARK   43  A    between atoms: _114  and  _115
REMARK   44  A    between atoms: _114  and  _117
REMARK   45  A    between atoms: _117  and  _118
REMARK   46  A    between atoms: _118  and  _119
REMARK   47  A    between atoms: _121  and  _123
REMARK   48  A    between atoms: _123  and  _124
REMARK   49  A    between atoms: _123  and  _126
REMARK   50  A    between atoms: _126  and  _127
REMARK   51  A    between atoms: _130  and  _132
REMARK   52  A    between atoms: _132  and  _133
REMARK   53  A    between atoms: _132  and  _135
REMARK   54  A    between atoms: _135  and  _136
REMARK   55  A    between atoms: _136  and  _137
REMARK   56  A    between atoms: _140  and  _142
REMARK   57  A    between atoms: _142  and  _143
REMARK   58  A    between atoms: _142  and  _145
REMARK   59  A    between atoms: _145  and  _146
REMARK   60  A    between atoms: _151  and  _152
REMARK   61  A    between atoms: _154  and  _156
REMARK   62  A    between atoms: _156  and  _157
REMARK   63  A    between atoms: _159  and  _161
REMARK   64  A    between atoms: _161  and  _162
REMARK   65  A    between atoms: _161  and  _164
REMARK   66  A    between atoms: _164  and  _165
REMARK   67  A    between atoms: _165  and  _166
REMARK   68  A    between atoms: _169  and  _171
REMARK   69  A    between atoms: _171  and  _172
REMARK   70  A    between atoms: _171  and  _174
REMARK   71  A    between atoms: _174  and  _175
REMARK   72  A    between atoms: _178  and  _180
REMARK   73  A    between atoms: _180  and  _181
REMARK   74  A    between atoms: _180  and  _183
REMARK   75  A    between atoms: _183  and  _184
REMARK   76  A    between atoms: _184  and  _185
REMARK   77  A    between atoms: _185  and  _186
REMARK   78  A    between atoms: _195  and  _197
REMARK   79  A    between atoms: _197  and  _198
REMARK   80  A    between atoms: _197  and  _200
REMARK   81  A    between atoms: _200  and  _201
REMARK   82  A    between atoms: _201  and  _202
REMARK   83  A    between atoms: _202  and  _203
REMARK   84  A    between atoms: _203  and  _204
REMARK   85  A    between atoms: _208  and  _210
REMARK   86  A    between atoms: _210  and  _211
REMARK   87  A    between atoms: _210  and  _213
REMARK   88  A    between atoms: _216  and  _218
REMARK   89  A    between atoms: _218  and  _219
REMARK   90  A    between atoms: _222  and  _224
REMARK   91  A    between atoms: _224  and  _225
REMARK   92  A    between atoms: _224  and  _227
REMARK   93  A    between atoms: _227  and  _228
REMARK   94  A    between atoms: _233  and  _235
REMARK   95  A    between atoms: _235  and  _236
REMARK   96  A    between atoms: _235  and  _238
REMARK   97  A    between atoms: _238  and  _239
REMARK   98  A    between atoms: _241  and  _243
REMARK   99  A    between atoms: _243  and  _244
REMARK  100  A    between atoms: _243  and  _246
REMARK  101  A    between atoms: _246  and  _247
REMARK  102  A    between atoms: _247  and  _248
REMARK  103  A    between atoms: _253  and  _255
REMARK  104  A    between atoms: _255  and  _256
REMARK  105  A    between atoms: _255  and  _258
REMARK  106  A    between atoms: _258  and  _259
REMARK  107  A    between atoms: _262  and  _264
REMARK  108  A    between atoms: _264  and  _265
REMARK  109  A    between atoms: _264  and  _267
REMARK  110  A    between atoms: _267  and  _268
REMARK  111  A    between atoms: _273  and  _275
REMARK  112  A    between atoms: _275  and  _276
REMARK  113  A    between atoms: _275  and  _278
REMARK  114  A    between atoms: _278  and  _279
REMARK  115  A    between atoms: _279  and  _280
REMARK  116  A    between atoms: _280  and  _281
REMARK  117  A    between atoms: _290  and  _292
REMARK  118  A    between atoms: _292  and  _293
REMARK  119  A    between atoms: _292  and  _295
REMARK  120  A    between atoms: _298  and  _300
REMARK  121  A    between atoms: _300  and  _301
REMARK  122  A    between atoms: _300  and  _303
REMARK  123  A    between atoms: _303  and  _304
REMARK  124  A    between atoms: _307  and  _309
REMARK  125  A    between atoms: _309  and  _310
REMARK  126  A    between atoms: _309  and  _312
REMARK  127  A    between atoms: _312  and  _313
REMARK  128  A    between atoms: _316  and  _318
REMARK  129  A    between atoms: _318  and  _319
REMARK  130  A    between atoms: _321  and  _323
REMARK  131  A    between atoms: _323  and  _324
REMARK  132  A    between atoms: _323  and  _326
REMARK  133  A    between atoms: _326  and  _327
REMARK  134  A    between atoms: _330  and  _332
REMARK  135  A    between atoms: _332  and  _333
REMARK  136  A    between atoms: _332  and  _335
REMARK  137  A    between atoms: _335  and  _336
REMARK  138  A    between atoms: _339  and  _341
REMARK  139  A    between atoms: _341  and  _342
REMARK  140  A    between atoms: _341  and  _344
REMARK  141  A    between atoms: _344  and  _345
REMARK  142  A    between atoms: _345  and  _346
REMARK  143  A    between atoms: _346  and  _347
REMARK  144  A    between atoms: _356  and  _358
REMARK  145  A    between atoms: _358  and  _359
REMARK  146  A    between atoms: _358  and  _361
REMARK  147  A    between atoms: _361  and  _362
REMARK  148  A    between atoms: _367  and  _368
REMARK  149  A    between atoms: _370  and  _372
REMARK  150  A    between atoms: _372  and  _373
REMARK  151  A    between atoms: _372  and  _375
REMARK  152  A    between atoms: _378  and  _380
REMARK  153  A    between atoms: _380  and  _381
REMARK  154  A    between atoms: _380  and  _383
REMARK  155  A    between atoms: _383  and  _384
REMARK  156  A    between atoms: _384  and  _385
REMARK  157  A    between atoms: _385  and  _386
REMARK  158  A    between atoms: _395  and  _397
REMARK  159  A    between atoms: _397  and  _398
REMARK  160  A    between atoms: _397  and  _400
REMARK  161  A    between atoms: _400  and  _401
REMARK  162  A    between atoms: _406  and  _407
REMARK  163  A    between atoms: _409  and  _411
REMARK  164  A    between atoms: _411  and  _412
REMARK  165  A    between atoms: _414  and  _416
REMARK  166  A    between atoms: _416  and  _417
REMARK  167  A    between atoms: _416  and  _419
REMARK  168  A    between atoms: _419  and  _420
REMARK  169  A    between atoms: _420  and  _723
REMARK  170  A    between atoms: _421  and  _423
REMARK  171  A    between atoms: _423  and  _424
REMARK  172  A    between atoms: _423  and  _426
REMARK  173  A    between atoms: _426  and  _427
REMARK  174  A    between atoms: _432  and  _434
REMARK  175  A    between atoms: _434  and  _435
REMARK  176  A    between atoms: _434  and  _437
REMARK  177  A    between atoms: _437  and  _438
REMARK  178  A    between atoms: _443  and  _444
REMARK  179  A    between atoms: _446  and  _448
REMARK  180  A    between atoms: _448  and  _449
REMARK  181  A    between atoms: _452  and  _454
REMARK  182  A    between atoms: _454  and  _455
REMARK  183  A    between atoms: _454  and  _457
REMARK  184  A    between atoms: _457  and  _458
REMARK  185  A    between atoms: _463  and  _464
REMARK  186  A    between atoms: _466  and  _468
REMARK  187  A    between atoms: _468  and  _469
REMARK  188  A    between atoms: _468  and  _471
REMARK  189  A    between atoms: _471  and  _472
REMARK  190  A    between atoms: _477  and  _478
REMARK  191  A    between atoms: _480  and  _482
REMARK  192  A    between atoms: _482  and  _483
REMARK  193  A    between atoms: _482  and  _485
REMARK  194  A    between atoms: _485  and  _486
REMARK  195  A    between atoms: _489  and  _491
REMARK  196  A    between atoms: _491  and  _492
REMARK  197  A    between atoms: _491  and  _494
REMARK  198  A    between atoms: _494  and  _495
REMARK  199  A    between atoms: _505  and  _507
REMARK  200  A    between atoms: _507  and  _508
REMARK  201  A    between atoms: _511  and  _513
REMARK  202  A    between atoms: _513  and  _514
REMARK  203  A    between atoms: _517  and  _519
REMARK  204  A    between atoms: _519  and  _520
REMARK  205  A    between atoms: _519  and  _522
REMARK  206  A    between atoms: _522  and  _523
REMARK  207  A    between atoms: _523  and  _524
REMARK  208  A    between atoms: _529  and  _531
REMARK  209  A    between atoms: _531  and  _532
REMARK  210  A    between atoms: _531  and  _534
REMARK  211  A    between atoms: _534  and  _535
REMARK  212  A    between atoms: _538  and  _540
REMARK  213  A    between atoms: _540  and  _541
REMARK  214  A    between atoms: _540  and  _543
REMARK  215  A    between atoms: _543  and  _544
REMARK  216  A    between atoms: _547  and  _549
REMARK  217  A    between atoms: _549  and  _550
REMARK  218  A    between atoms: _549  and  _552
REMARK  219  A    between atoms: _552  and  _553
REMARK  220  A    between atoms: _553  and  _554
REMARK  221  A    between atoms: _554  and  _555
REMARK  222  A    between atoms: _555  and  _556
REMARK  223  A    between atoms: _560  and  _562
REMARK  224  A    between atoms: _562  and  _563
REMARK  225  A    between atoms: _562  and  _565
REMARK  226  A    between atoms: _565  and  _566
REMARK  227  A    between atoms: _571  and  _573
REMARK  228  A    between atoms: _573  and  _574
REMARK  229  A    between atoms: _573  and  _576
REMARK  230  A    between atoms: _576  and  _577
REMARK  231  A    between atoms: _577  and  _578
REMARK  232  A    between atoms: _578  and  _579
REMARK  233  A    between atoms: _579  and  _580
REMARK  234  A    between atoms: _584  and  _586
REMARK  235  A    between atoms: _586  and  _587
REMARK  236  A    between atoms: _586  and  _589
REMARK  237  A    between atoms: _589  and  _590
REMARK  238  A    between atoms: _600  and  _602
REMARK  239  A    between atoms: _602  and  _603
REMARK  240  A    between atoms: _602  and  _605
REMARK  241  A    between atoms: _605  and  _606
REMARK  242  A    between atoms: _606  and  _607
REMARK  243  A    between atoms: _610  and  _612
REMARK  244  A    between atoms: _612  and  _613
REMARK  245  A    between atoms: _616  and  _618
REMARK  246  A    between atoms: _618  and  _619
REMARK  247  A    between atoms: _622  and  _624
REMARK  248  A    between atoms: _624  and  _625
REMARK  249  A    between atoms: _624  and  _627
REMARK  250  A    between atoms: _627  and  _628
REMARK  251  A    between atoms: _633  and  _635
REMARK  252  A    between atoms: _635  and  _636
REMARK  253  A    between atoms: _635  and  _638
REMARK  254  A    between atoms: _641  and  _643
REMARK  255  A    between atoms: _643  and  _644
REMARK  256  A    between atoms: _647  and  _649
REMARK  257  A    between atoms: _649  and  _650
REMARK  258  A    between atoms: _649  and  _652
REMARK  259  A    between atoms: _652  and  _653
REMARK  260  A    between atoms: _653  and  _654
REMARK  261  A    between atoms: _659  and  _661
REMARK  262  A    between atoms: _661  and  _662
REMARK  263  A    between atoms: _661  and  _664
REMARK  264  A    between atoms: _664  and  _665
REMARK  265  A    between atoms: _668  and  _670
REMARK  266  A    between atoms: _670  and  _671
REMARK  267  A    between atoms: _670  and  _673
REMARK  268  A    between atoms: _673  and  _674
REMARK  269  A    between atoms: _674  and  _675
REMARK  270  A    between atoms: _675  and  _676
REMARK  271  A    between atoms: _685  and  _687
REMARK  272  A    between atoms: _687  and  _688
REMARK  273  A    between atoms: _687  and  _690
REMARK  274  A    between atoms: _690  and  _691
REMARK  275  A    between atoms: _696  and  _697
REMARK  276  A    between atoms: _699  and  _701
REMARK  277  A    between atoms: _701  and  _702
REMARK  278  A    between atoms: _701  and  _704
REMARK  279  A    between atoms: _704  and  _705
REMARK  280  A    between atoms: _708  and  _710
REMARK  281  A    between atoms: _710  and  _711
REMARK  282  A    between atoms: _710  and  _713
REMARK  283  A    between atoms: _713  and  _714
REMARK  284  A    between atoms: _717  and  _719
REMARK  285  A    between atoms: _719  and  _720
REMARK  286  A    between atoms: _719  and  _722
REMARK  287  A    between atoms: _722  and  _723
REMARK  288  A    between atoms: _724  and  _726
REMARK  289  A    between atoms: _726  and  _727
REMARK  290  A    between atoms: _726  and  _729
REMARK  291  A    between atoms: _732  and  _734
REMARK  292  A    between atoms: _734  and  _735
REMARK  293  A    between atoms: _734  and  _737
REMARK  294  A    between atoms: _737  and  _738
REMARK  295  A    between atoms: _738  and  _739
REMARK  296  A    between atoms: _742  and  _744
REMARK  297  A    between atoms: _744  and  _745
REMARK  298  A    between atoms: _744  and  _747
REMARK  299  A    between atoms: _747  and  _748
REMARK  300  A    between atoms: _758  and  _760
REMARK  301  A    between atoms: _760  and  _761
REMARK  302  A    between atoms: _760  and  _763
REMARK  303  A    between atoms: _763  and  _764
REMARK  304  A    between atoms: _767  and  _769
REMARK  305  A    between atoms: _769  and  _770
REMARK  306  A    between atoms: _769  and  _772
REMARK  307  A    between atoms: _772  and  _773
REMARK  308  A    between atoms: _773  and  _774
REMARK  309  A    between atoms: _774  and  _775
REMARK  310  A    between atoms: _784  and  _786
REMARK  311  A    between atoms: _786  and  _787
REMARK  312  A    between atoms: _786  and  _789
REMARK  313  A    between atoms: _789  and  _790
REMARK  314  A    between atoms: _795  and  _796
REMARK                            x       y       z     vdW  Elec       q    Type
REMARK                         _______ _______ _______ _____ _____    ______ ____
ROOT
ATOM      1  O   HOH     1      27.134  -8.265  36.043  0.00  0.00    +0.000 OA
ENDROOT
TORSDOF 0
REMARK  Name = ../refined-set-2016/3qfd/3qfd_pocket.pdb
REMARK  314 active torsions:
REMARK  status: ('A' for Active; 'I' for Inactive)
REMARK    1  A    between atoms: _1  and  _3
REMARK    2  A    between atoms: _3  and  _4
REMARK    3  A    between atoms: _3  and  _6
REMARK    4  A    between atoms: _6  and  _7
REMARK    5  A    between atoms: _7  and  _8
REMARK    6  A    between atoms: _10  and  _12
REMARK    7  A    between atoms: _12  and  _13
REMARK    8  A    between atoms: _12  and  _15
REMARK    9  A    between atoms: _15  and  _16
REMARK   10  A    between atoms: _16  and  _17
REMARK   11  A    between atoms: _17  and  _18
REMARK   12  A    between atoms: _27  and  _29
REMARK   13  A    between atoms: _29  and  _30
REMARK   14  A    between atoms: _29  and  _32
REMARK   15  A    between atoms: _32  and  _33
REMARK   16  A    between atoms: _38  and  _39
REMARK   17  A    between atoms: _41  and  _43
REMARK   18  A    between atoms: _43  and  _44
REMARK   19  A    between atoms: _43  and  _46
REMARK   20  A    between atoms: _46  and  _47
REMARK   21  A    between atoms: _53  and  _55
REMARK   22  A    between atoms: _55  and  _56
REMARK   23  A    between atoms: _55  and  _58
REMARK   24  A    between atoms: _58  and  _59
REMARK   25  A    between atoms: _65  and  _67
REMARK   26  A    between atoms: _67  and  _68
REMARK   27  A    between atoms: _71  and  _73
REMARK   28  A    between atoms: _73  and  _74
REMARK   29  A    between atoms: _73  and  _76
REMARK   30  A    between atoms: _79  and  _81
REMARK   31  A    between atoms: _81  and  _82
REMARK   32  A    between atoms: _84  and  _86
REMARK   33  A    between atoms: _86  and  _87
REMARK   34  A    between atoms: _86  and  _89
REMARK   35  A    between atoms: _92  and  _94
REMARK   36  A    between atoms: _94  and  _95
REMARK   37  A    between atoms: _94  and  _97
REMARK   38  A    between atoms: _97  and  _98
REMARK   39  A    between atoms: _104  and  _106
REMARK   40  A    between atoms: _106  and  _107
REMARK   41  A    between atoms: _106  and  _109
REMARK   42  A    between atoms: _112  and  _114
REMARK   43  A    between atoms: _114  and  _115
REMARK   44  A    between atoms: _114  and  _117
REMARK   45  A    between atoms: _117  and  _118
REMARK   46  A    between atoms: _118  and  _119
REMARK   47  A    between atoms: _121  and  _123
REMARK   48  A    between atoms: _123  and  _124
REMARK   49  A    between atoms: _123  and  _126
REMARK   50  A    between atoms: _126  and  _127
REMARK   51  A    between atoms: _130  and  _132
REMARK   52  A    between atoms: _132  and  _133
REMARK   53  A    between atoms: _132  and  _135
REMARK   54  A    between atoms: _135  and  _136
REMARK   55  A    between atoms: _136  and  _137
REMARK   56  A    between atoms: _140  and  _142
REMARK   57  A    between atoms: _142  and  _143
REMARK   58  A    between atoms: _142  and  _145
REMARK   59  A    between atoms: _145  and  _146
REMARK   60  A    between atoms: _151  and  _152
REMARK   61  A    between atoms: _154  and  _156
REMARK   62  A    between atoms: _156  and  _157
REMARK   63  A    between atoms: _159  and  _161
REMARK   64  A    between atoms: _161  and  _162
REMARK   65  A    between atoms: _161  and  _164
REMARK   66  A    between atoms: _164  and  _165
REMARK   67  A    between atoms: _165  and  _166
REMARK   68  A    between atoms: _169  and  _171
REMARK   69  A    between atoms: _171  and  _172
REMARK   70  A    between atoms: _171  and  _174
REMARK   71  A    between atoms: _174  and  _175
REMARK   72  A    between atoms: _178  and  _180
REMARK   73  A    between atoms: _180  and  _181
REMARK   74  A    between atoms: _180  and  _183
REMARK   75  A    between atoms: _183  and  _184
REMARK   76  A    between atoms: _184  and  _185
REMARK   77  A    between atoms: _185  and  _186
REMARK   78  A    between atoms: _195  and  _197
REMARK   79  A    between atoms: _197  and  _198
REMARK   80  A    between atoms: _197  and  _200
REMARK   81  A    between atoms: _200  and  _201
REMARK   82  A    between atoms: _201  and  _202
REMARK   83  A    between atoms: _202  and  _203
REMARK   84  A    between atoms: _203  and  _204
REMARK   85  A    between atoms: _208  and  _210
REMARK   86  A    between atoms: _210  and  _211
REMARK   87  A    between atoms: _210  and  _213
REMARK   88  A    between atoms: _216  and  _218
REMARK   89  A    between atoms: _218  and  _219
REMARK   90  A    between atoms: _222  and  _224
REMARK   91  A    between atoms: _224  and  _225
REMARK   92  A    between atoms: _224  and  _227
REMARK   93  A    between atoms: _227  and  _228
REMARK   94  A    between atoms: _233  and  _235
REMARK   95  A    between atoms: _235  and  _236
REMARK   96  A    between atoms: _235  and  _238
REMARK   97  A    between atoms: _238  and  _239
REMARK   98  A    between atoms: _241  and  _243
REMARK   99  A    between atoms: _243  and  _244
REMARK  100  A    between atoms: _243  and  _246
REMARK  101  A    between atoms: _246  and  _247
REMARK  102  A    between atoms: _247  and  _248
REMARK  103  A    between atoms: _253  and  _255
REMARK  104  A    between atoms: _255  and  _256
REMARK  105  A    between atoms: _255  and  _258
REMARK  106  A    between atoms: _258  and  _259
REMARK  107  A    between atoms: _262  and  _264
REMARK  108  A    between atoms: _264  and  _265
REMARK  109  A    between atoms: _264  and  _267
REMARK  110  A    between atoms: _267  and  _268
REMARK  111  A    between atoms: _273  and  _275
REMARK  112  A    between atoms: _275  and  _276
REMARK  113  A    between atoms: _275  and  _278
REMARK  114  A    between atoms: _278  and  _279
REMARK  115  A    between atoms: _279  and  _280
REMARK  116  A    between atoms: _280  and  _281
REMARK  117  A    between atoms: _290  and  _292
REMARK  118  A    between atoms: _292  and  _293
REMARK  119  A    between atoms: _292  and  _295
REMARK  120  A    between atoms: _298  and  _300
REMARK  121  A    between atoms: _300  and  _301
REMARK  122  A    between atoms: _300  and  _303
REMARK  123  A    between atoms: _303  and  _304
REMARK  124  A    between atoms: _307  and  _309
REMARK  125  A    between atoms: _309  and  _310
REMARK  126  A    between atoms: _309  and  _312
REMARK  127  A    between atoms: _312  and  _313
REMARK  128  A    between atoms: _316  and  _318
REMARK  129  A    between atoms: _318  and  _319
REMARK  130  A    between atoms: _321  and  _323
REMARK  131  A    between atoms: _323  and  _324
REMARK  132  A    between atoms: _323  and  _326
REMARK  133  A    between atoms: _326  and  _327
REMARK  134  A    between atoms: _330  and  _332
REMARK  135  A    between atoms: _332  and  _333
REMARK  136  A    between atoms: _332  and  _335
REMARK  137  A    between atoms: _335  and  _336
REMARK  138  A    between atoms: _339  and  _341
REMARK  139  A    between atoms: _341  and  _342
REMARK  140  A    between atoms: _341  and  _344
REMARK  141  A    between atoms: _344  and  _345
REMARK  142  A    between atoms: _345  and  _346
REMARK  143  A    between atoms: _346  and  _347
REMARK  144  A    between atoms: _356  and  _358
REMARK  145  A    between atoms: _358  and  _359
REMARK  146  A    between atoms: _358  and  _361
REMARK  147  A    between atoms: _361  and  _362
REMARK  148  A    between atoms: _367  and  _368
REMARK  149  A    between atoms: _370  and  _372
REMARK  150  A    between atoms: _372  and  _373
REMARK  151  A    between atoms: _372  and  _375
REMARK  152  A    between atoms: _378  and  _380
REMARK  153  A    between atoms: _380  and  _381
REMARK  154  A    between atoms: _380  and  _383
REMARK  155  A    between atoms: _383  and  _384
REMARK  156  A    between atoms: _384  and  _385
REMARK  157  A    between atoms: _385  and  _386
REMARK  158  A    between atoms: _395  and  _397
REMARK  159  A    between atoms: _397  and  _398
REMARK  160  A    between atoms: _397  and  _400
REMARK  161  A    between atoms: _400  and  _401
REMARK  162  A    between atoms: _406  and  _407
REMARK  163  A    between atoms: _409  and  _411
REMARK  164  A    between atoms: _411  and  _412
REMARK  165  A    between atoms: _414  and  _416
REMARK  166  A    between atoms: _416  and  _417
REMARK  167  A    between atoms: _416  and  _419
REMARK  168  A    between atoms: _419  and  _420
REMARK  169  A    between atoms: _420  and  _723
REMARK  170  A    between atoms: _421  and  _423
REMARK  171  A    between atoms: _423  and  _424
REMARK  172  A    between atoms: _423  and  _426
REMARK  173  A    between atoms: _426  and  _427
REMARK  174  A    between atoms: _432  and  _434
REMARK  175  A    between atoms: _434  and  _435
REMARK  176  A    between atoms: _434  and  _437
REMARK  177  A    between atoms: _437  and  _438
REMARK  178  A    between atoms: _443  and  _444
REMARK  179  A    between atoms: _446  and  _448
REMARK  180  A    between atoms: _448  and  _449
REMARK  181  A    between atoms: _452  and  _454
REMARK  182  A    between atoms: _454  and  _455
REMARK  183  A    between atoms: _454  and  _457
REMARK  184  A    between atoms: _457  and  _458
REMARK  185  A    between atoms: _463  and  _464
REMARK  186  A    between atoms: _466  and  _468
REMARK  187  A    between atoms: _468  and  _469
REMARK  188  A    between atoms: _468  and  _471
REMARK  189  A    between atoms: _471  and  _472
REMARK  190  A    between atoms: _477  and  _478
REMARK  191  A    between atoms: _480  and  _482
REMARK  192  A    between atoms: _482  and  _483
REMARK  193  A    between atoms: _482  and  _485
REMARK  194  A    between atoms: _485  and  _486
REMARK  195  A    between atoms: _489  and  _491
REMARK  196  A    between atoms: _491  and  _492
REMARK  197  A    between atoms: _491  and  _494
REMARK  198  A    between atoms: _494  and  _495
REMARK  199  A    between atoms: _505  and  _507
REMARK  200  A    between atoms: _507  and  _508
REMARK  201  A    between atoms: _511  and  _513
REMARK  202  A    between atoms: _513  and  _514
REMARK  203  A    between atoms: _517  and  _519
REMARK  204  A    between atoms: _519  and  _520
REMARK  205  A    between atoms: _519  and  _522
REMARK  206  A    between atoms: _522  and  _523
REMARK  207  A    between atoms: _523  and  _524
REMARK  208  A    between atoms: _529  and  _531
REMARK  209  A    between atoms: _531  and  _532
REMARK  210  A    between atoms: _531  and  _534
REMARK  211  A    between atoms: _534  and  _535
REMARK  212  A    between atoms: _538  and  _540
REMARK  213  A    between atoms: _540  and  _541
REMARK  214  A    between atoms: _540  and  _543
REMARK  215  A    between atoms: _543  and  _544
REMARK  216  A    between atoms: _547  and  _549
REMARK  217  A    between atoms: _549  and  _550
REMARK  218  A    between atoms: _549  and  _552
REMARK  219  A    between atoms: _552  and  _553
REMARK  220  A    between atoms: _553  and  _554
REMARK  221  A    between atoms: _554  and  _555
REMARK  222  A    between atoms: _555  and  _556
REMARK  223  A    between atoms: _560  and  _562
REMARK  224  A    between atoms: _562  and  _563
REMARK  225  A    between atoms: _562  and  _565
REMARK  226  A    between atoms: _565  and  _566
REMARK  227  A    between atoms: _571  and  _573
REMARK  228  A    between atoms: _573  and  _574
REMARK  229  A    between atoms: _573  and  _576
REMARK  230  A    between atoms: _576  and  _577
REMARK  231  A    between atoms: _577  and  _578
REMARK  232  A    between atoms: _578  and  _579
REMARK  233  A    between atoms: _579  and  _580
REMARK  234  A    between atoms: _584  and  _586
REMARK  235  A    between atoms: _586  and  _587
REMARK  236  A    between atoms: _586  and  _589
REMARK  237  A    between atoms: _589  and  _590
REMARK  238  A    between atoms: _600  and  _602
REMARK  239  A    between atoms: _602  and  _603
REMARK  240  A    between atoms: _602  and  _605
REMARK  241  A    between atoms: _605  and  _606
REMARK  242  A    between atoms: _606  and  _607
REMARK  243  A    between atoms: _610  and  _612
REMARK  244  A    between atoms: _612  and  _613
REMARK  245  A    between atoms: _616  and  _618
REMARK  246  A    between atoms: _618  and  _619
REMARK  247  A    between atoms: _622  and  _624
REMARK  248  A    between atoms: _624  and  _625
REMARK  249  A    between atoms: _624  and  _627
REMARK  250  A    between atoms: _627  and  _628
REMARK  251  A    between atoms: _633  and  _635
REMARK  252  A    between atoms: _635  and  _636
REMARK  253  A    between atoms: _635  and  _638
REMARK  254  A    between atoms: _641  and  _643
REMARK  255  A    between atoms: _643  and  _644
REMARK  256  A    between atoms: _647  and  _649
REMARK  257  A    between atoms: _649  and  _650
REMARK  258  A    between atoms: _649  and  _652
REMARK  259  A    between atoms: _652  and  _653
REMARK  260  A    between atoms: _653  and  _654
REMARK  261  A    between atoms: _659  and  _661
REMARK  262  A    between atoms: _661  and  _662
REMARK  263  A    between atoms: _661  and  _664
REMARK  264  A    between atoms: _664  and  _665
REMARK  265  A    between atoms: _668  and  _670
REMARK  266  A    between atoms: _670  and  _671
REMARK  267  A    between atoms: _670  and  _673
REMARK  268  A    between atoms: _673  and  _674
REMARK  269  A    between atoms: _674  and  _675
REMARK  270  A    between atoms: _675  and  _676
REMARK  271  A    between atoms: _685  and  _687
REMARK  272  A    between atoms: _687  and  _688
REMARK  273  A    between atoms: _687  and  _690
REMARK  274  A    between atoms: _690  and  _691
REMARK  275  A    between atoms: _696  and  _697
REMARK  276  A    between atoms: _699  and  _701
REMARK  277  A    between atoms: _701  and  _702
REMARK  278  A    between atoms: _701  and  _704
REMARK  279  A    between atoms: _704  and  _705
REMARK  280  A    between atoms: _708  and  _710
REMARK  281  A    between atoms: _710  and  _711
REMARK  282  A    between atoms: _710  and  _713
REMARK  283  A    between atoms: _713  and  _714
REMARK  284  A    between atoms: _717  and  _719
REMARK  285  A    between atoms: _719  and  _720
REMARK  286  A    between atoms: _719  and  _722
REMARK  287  A    between atoms: _722  and  _723
REMARK  288  A    between atoms: _724  and  _726
REMARK  289  A    between atoms: _726  and  _727
REMARK  290  A    between atoms: _726  and  _729
REMARK  291  A    between atoms: _732  and  _734
REMARK  292  A    between atoms: _734  and  _735
REMARK  293  A    between atoms: _734  and  _737
REMARK  294  A    between atoms: _737  and  _738
REMARK  295  A    between atoms: _738  and  _739
REMARK  296  A    between atoms: _742  and  _744
REMARK  297  A    between atoms: _744  and  _745
REMARK  298  A    between atoms: _744  and  _747
REMARK  299  A    between atoms: _747  and  _748
REMARK  300  A    between atoms: _758  and  _760
REMARK  301  A    between atoms: _760  and  _761
REMARK  302  A    between atoms: _760  and  _763
REMARK  303  A    between atoms: _763  and  _764
REMARK  304  A    between atoms: _767  and  _769
REMARK  305  A    between atoms: _769  and  _770
REMARK  306  A    between atoms: _769  and  _772
REMARK  307  A    between atoms: _772  and  _773
REMARK  308  A    between atoms: _773  and  _774
REMARK  309  A    between atoms: _774  and  _775
REMARK  310  A    between atoms: _784  and  _786
REMARK  311  A    between atoms: _786  and  _787
REMARK  312  A    between atoms: _786  and  _789
REMARK  313  A    between atoms: _789  and  _790
REMARK  314  A    between atoms: _795  and  _796
REMARK                            x       y       z     vdW  Elec       q    Type
REMARK                         _______ _______ _______ _____ _____    ______ ____
ROOT
ATOM      1  O   HOH     1      37.471   3.065  30.066  0.00  0.00    +0.000 OA
ENDROOT
TORSDOF 0
REMARK  Name = ../refined-set-2016/3qfd/3qfd_pocket.pdb
REMARK  314 active torsions:
REMARK  status: ('A' for Active; 'I' for Inactive)
REMARK    1  A    between atoms: _1  and  _3
REMARK    2  A    between atoms: _3  and  _4
REMARK    3  A    between atoms: _3  and  _6
REMARK    4  A    between atoms: _6  and  _7
REMARK    5  A    between atoms: _7  and  _8
REMARK    6  A    between atoms: _10  and  _12
REMARK    7  A    between atoms: _12  and  _13
REMARK    8  A    between atoms: _12  and  _15
REMARK    9  A    between atoms: _15  and  _16
REMARK   10  A    between atoms: _16  and  _17
REMARK   11  A    between atoms: _17  and  _18
REMARK   12  A    between atoms: _27  and  _29
REMARK   13  A    between atoms: _29  and  _30
REMARK   14  A    between atoms: _29  and  _32
REMARK   15  A    between atoms: _32  and  _33
REMARK   16  A    between atoms: _38  and  _39
REMARK   17  A    between atoms: _41  and  _43
REMARK   18  A    between atoms: _43  and  _44
REMARK   19  A    between atoms: _43  and  _46
REMARK   20  A    between atoms: _46  and  _47
REMARK   21  A    between atoms: _53  and  _55
REMARK   22  A    between atoms: _55  and  _56
REMARK   23  A    between atoms: _55  and  _58
REMARK   24  A    between atoms: _58  and  _59
REMARK   25  A    between atoms: _65  and  _67
REMARK   26  A    between atoms: _67  and  _68
REMARK   27  A    between atoms: _71  and  _73
REMARK   28  A    between atoms: _73  and  _74
REMARK   29  A    between atoms: _73  and  _76
REMARK   30  A    between atoms: _79  and  _81
REMARK   31  A    between atoms: _81  and  _82
REMARK   32  A    between atoms: _84  and  _86
REMARK   33  A    between atoms: _86  and  _87
REMARK   34  A    between atoms: _86  and  _89
REMARK   35  A    between atoms: _92  and  _94
REMARK   36  A    between atoms: _94  and  _95
REMARK   37  A    between atoms: _94  and  _97
REMARK   38  A    between atoms: _97  and  _98
REMARK   39  A    between atoms: _104  and  _106
REMARK   40  A    between atoms: _106  and  _107
REMARK   41  A    between atoms: _106  and  _109
REMARK   42  A    between atoms: _112  and  _114
REMARK   43  A    between atoms: _114  and  _115
REMARK   44  A    between atoms: _114  and  _117
REMARK   45  A    between atoms: _117  and  _118
REMARK   46  A    between atoms: _118  and  _119
REMARK   47  A    between atoms: _121  and  _123
REMARK   48  A    between atoms: _123  and  _124
REMARK   49  A    between atoms: _123  and  _126
REMARK   50  A    between atoms: _126  and  _127
REMARK   51  A    between atoms: _130  and  _132
REMARK   52  A    between atoms: _132  and  _133
REMARK   53  A    between atoms: _132  and  _135
REMARK   54  A    between atoms: _135  and  _136
REMARK   55  A    between atoms: _136  and  _137
REMARK   56  A    between atoms: _140  and  _142
REMARK   57  A    between atoms: _142  and  _143
REMARK   58  A    between atoms: _142  and  _145
REMARK   59  A    between atoms: _145  and  _146
REMARK   60  A    between atoms: _151  and  _152
REMARK   61  A    between atoms: _154  and  _156
REMARK   62  A    between atoms: _156  and  _157
REMARK   63  A    between atoms: _159  and  _161
REMARK   64  A    between atoms: _161  and  _162
REMARK   65  A    between atoms: _161  and  _164
REMARK   66  A    between atoms: _164  and  _165
REMARK   67  A    between atoms: _165  and  _166
REMARK   68  A    between atoms: _169  and  _171
REMARK   69  A    between atoms: _171  and  _172
REMARK   70  A    between atoms: _171  and  _174
REMARK   71  A    between atoms: _174  and  _175
REMARK   72  A    between atoms: _178  and  _180
REMARK   73  A    between atoms: _180  and  _181
REMARK   74  A    between atoms: _180  and  _183
REMARK   75  A    between atoms: _183  and  _184
REMARK   76  A    between atoms: _184  and  _185
REMARK   77  A    between atoms: _185  and  _186
REMARK   78  A    between atoms: _195  and  _197
REMARK   79  A    between atoms: _197  and  _198
REMARK   80  A    between atoms: _197  and  _200
REMARK   81  A    between atoms: _200  and  _201
REMARK   82  A    between atoms: _201  and  _202
REMARK   83  A    between atoms: _202  and  _203
REMARK   84  A    between atoms: _203  and  _204
REMARK   85  A    between atoms: _208  and  _210
REMARK   86  A    between atoms: _210  and  _211
REMARK   87  A    between atoms: _210  and  _213
REMARK   88  A    between atoms: _216  and  _218
REMARK   89  A    between atoms: _218  and  _219
REMARK   90  A    between atoms: _222  and  _224
REMARK   91  A    between atoms: _224  and  _225
REMARK   92  A    between atoms: _224  and  _227
REMARK   93  A    between atoms: _227  and  _228
REMARK   94  A    between atoms: _233  and  _235
REMARK   95  A    between atoms: _235  and  _236
REMARK   96  A    between atoms: _235  and  _238
REMARK   97  A    between atoms: _238  and  _239
REMARK   98  A    between atoms: _241  and  _243
REMARK   99  A    between atoms: _243  and  _244
REMARK  100  A    between atoms: _243  and  _246
REMARK  101  A    between atoms: _246  and  _247
REMARK  102  A    between atoms: _247  and  _248
REMARK  103  A    between atoms: _253  and  _255
REMARK  104  A    between atoms: _255  and  _256
REMARK  105  A    between atoms: _255  and  _258
REMARK  106  A    between atoms: _258  and  _259
REMARK  107  A    between atoms: _262  and  _264
REMARK  108  A    between atoms: _264  and  _265
REMARK  109  A    between atoms: _264  and  _267
REMARK  110  A    between atoms: _267  and  _268
REMARK  111  A    between atoms: _273  and  _275
REMARK  112  A    between atoms: _275  and  _276
REMARK  113  A    between atoms: _275  and  _278
REMARK  114  A    between atoms: _278  and  _279
REMARK  115  A    between atoms: _279  and  _280
REMARK  116  A    between atoms: _280  and  _281
REMARK  117  A    between atoms: _290  and  _292
REMARK  118  A    between atoms: _292  and  _293
REMARK  119  A    between atoms: _292  and  _295
REMARK  120  A    between atoms: _298  and  _300
REMARK  121  A    between atoms: _300  and  _301
REMARK  122  A    between atoms: _300  and  _303
REMARK  123  A    between atoms: _303  and  _304
REMARK  124  A    between atoms: _307  and  _309
REMARK  125  A    between atoms: _309  and  _310
REMARK  126  A    between atoms: _309  and  _312
REMARK  127  A    between atoms: _312  and  _313
REMARK  128  A    between atoms: _316  and  _318
REMARK  129  A    between atoms: _318  and  _319
REMARK  130  A    between atoms: _321  and  _323
REMARK  131  A    between atoms: _323  and  _324
REMARK  132  A    between atoms: _323  and  _326
REMARK  133  A    between atoms: _326  and  _327
REMARK  134  A    between atoms: _330  and  _332
REMARK  135  A    between atoms: _332  and  _333
REMARK  136  A    between atoms: _332  and  _335
REMARK  137  A    between atoms: _335  and  _336
REMARK  138  A    between atoms: _339  and  _341
REMARK  139  A    between atoms: _341  and  _342
REMARK  140  A    between atoms: _341  and  _344
REMARK  141  A    between atoms: _344  and  _345
REMARK  142  A    between atoms: _345  and  _346
REMARK  143  A    between atoms: _346  and  _347
REMARK  144  A    between atoms: _356  and  _358
REMARK  145  A    between atoms: _358  and  _359
REMARK  146  A    between atoms: _358  and  _361
REMARK  147  A    between atoms: _361  and  _362
REMARK  148  A    between atoms: _367  and  _368
REMARK  149  A    between atoms: _370  and  _372
REMARK  150  A    between atoms: _372  and  _373
REMARK  151  A    between atoms: _372  and  _375
REMARK  152  A    between atoms: _378  and  _380
REMARK  153  A    between atoms: _380  and  _381
REMARK  154  A    between atoms: _380  and  _383
REMARK  155  A    between atoms: _383  and  _384
REMARK  156  A    between atoms: _384  and  _385
REMARK  157  A    between atoms: _385  and  _386
REMARK  158  A    between atoms: _395  and  _397
REMARK  159  A    between atoms: _397  and  _398
REMARK  160  A    between atoms: _397  and  _400
REMARK  161  A    between atoms: _400  and  _401
REMARK  162  A    between atoms: _406  and  _407
REMARK  163  A    between atoms: _409  and  _411
REMARK  164  A    between atoms: _411  and  _412
REMARK  165  A    between atoms: _414  and  _416
REMARK  166  A    between atoms: _416  and  _417
REMARK  167  A    between atoms: _416  and  _419
REMARK  168  A    between atoms: _419  and  _420
REMARK  169  A    between atoms: _420  and  _723
REMARK  170  A    between atoms: _421  and  _423
REMARK  171  A    between atoms: _423  and  _424
REMARK  172  A    between atoms: _423  and  _426
REMARK  173  A    between atoms: _426  and  _427
REMARK  174  A    between atoms: _432  and  _434
REMARK  175  A    between atoms: _434  and  _435
REMARK  176  A    between atoms: _434  and  _437
REMARK  177  A    between atoms: _437  and  _438
REMARK  178  A    between atoms: _443  and  _444
REMARK  179  A    between atoms: _446  and  _448
REMARK  180  A    between atoms: _448  and  _449
REMARK  181  A    between atoms: _452  and  _454
REMARK  182  A    between atoms: _454  and  _455
REMARK  183  A    between atoms: _454  and  _457
REMARK  184  A    between atoms: _457  and  _458
REMARK  185  A    between atoms: _463  and  _464
REMARK  186  A    between atoms: _466  and  _468
REMARK  187  A    between atoms: _468  and  _469
REMARK  188  A    between atoms: _468  and  _471
REMARK  189  A    between atoms: _471  and  _472
REMARK  190  A    between atoms: _477  and  _478
REMARK  191  A    between atoms: _480  and  _482
REMARK  192  A    between atoms: _482  and  _483
REMARK  193  A    between atoms: _482  and  _485
REMARK  194  A    between atoms: _485  and  _486
REMARK  195  A    between atoms: _489  and  _491
REMARK  196  A    between atoms: _491  and  _492
REMARK  197  A    between atoms: _491  and  _494
REMARK  198  A    between atoms: _494  and  _495
REMARK  199  A    between atoms: _505  and  _507
REMARK  200  A    between atoms: _507  and  _508
REMARK  201  A    between atoms: _511  and  _513
REMARK  202  A    between atoms: _513  and  _514
REMARK  203  A    between atoms: _517  and  _519
REMARK  204  A    between atoms: _519  and  _520
REMARK  205  A    between atoms: _519  and  _522
REMARK  206  A    between atoms: _522  and  _523
REMARK  207  A    between atoms: _523  and  _524
REMARK  208  A    between atoms: _529  and  _531
REMARK  209  A    between atoms: _531  and  _532
REMARK  210  A    between atoms: _531  and  _534
REMARK  211  A    between atoms: _534  and  _535
REMARK  212  A    between atoms: _538  and  _540
REMARK  213  A    between atoms: _540  and  _541
REMARK  214  A    between atoms: _540  and  _543
REMARK  215  A    between atoms: _543  and  _544
REMARK  216  A    between atoms: _547  and  _549
REMARK  217  A    between atoms: _549  and  _550
REMARK  218  A    between atoms: _549  and  _552
REMARK  219  A    between atoms: _552  and  _553
REMARK  220  A    between atoms: _553  and  _554
REMARK  221  A    between atoms: _554  and  _555
REMARK  222  A    between atoms: _555  and  _556
REMARK  223  A    between atoms: _560  and  _562
REMARK  224  A    between atoms: _562  and  _563
REMARK  225  A    between atoms: _562  and  _565
REMARK  226  A    between atoms: _565  and  _566
REMARK  227  A    between atoms: _571  and  _573
REMARK  228  A    between atoms: _573  and  _574
REMARK  229  A    between atoms: _573  and  _576
REMARK  230  A    between atoms: _576  and  _577
REMARK  231  A    between atoms: _577  and  _578
REMARK  232  A    between atoms: _578  and  _579
REMARK  233  A    between atoms: _579  and  _580
REMARK  234  A    between atoms: _584  and  _586
REMARK  235  A    between atoms: _586  and  _587
REMARK  236  A    between atoms: _586  and  _589
REMARK  237  A    between atoms: _589  and  _590
REMARK  238  A    between atoms: _600  and  _602
REMARK  239  A    between atoms: _602  and  _603
REMARK  240  A    between atoms: _602  and  _605
REMARK  241  A    between atoms: _605  and  _606
REMARK  242  A    between atoms: _606  and  _607
REMARK  243  A    between atoms: _610  and  _612
REMARK  244  A    between atoms: _612  and  _613
REMARK  245  A    between atoms: _616  and  _618
REMARK  246  A    between atoms: _618  and  _619
REMARK  247  A    between atoms: _622  and  _624
REMARK  248  A    between atoms: _624  and  _625
REMARK  249  A    between atoms: _624  and  _627
REMARK  250  A    between atoms: _627  and  _628
REMARK  251  A    between atoms: _633  and  _635
REMARK  252  A    between atoms: _635  and  _636
REMARK  253  A    between atoms: _635  and  _638
REMARK  254  A    between atoms: _641  and  _643
REMARK  255  A    between atoms: _643  and  _644
REMARK  256  A    between atoms: _647  and  _649
REMARK  257  A    between atoms: _649  and  _650
REMARK  258  A    between atoms: _649  and  _652
REMARK  259  A    between atoms: _652  and  _653
REMARK  260  A    between atoms: _653  and  _654
REMARK  261  A    between atoms: _659  and  _661
REMARK  262  A    between atoms: _661  and  _662
REMARK  263  A    between atoms: _661  and  _664
REMARK  264  A    between atoms: _664  and  _665
REMARK  265  A    between atoms: _668  and  _670
REMARK  266  A    between atoms: _670  and  _671
REMARK  267  A    between atoms: _670  and  _673
REMARK  268  A    between atoms: _673  and  _674
REMARK  269  A    between atoms: _674  and  _675
REMARK  270  A    between atoms: _675  and  _676
REMARK  271  A    between atoms: _685  and  _687
REMARK  272  A    between atoms: _687  and  _688
REMARK  273  A    between atoms: _687  and  _690
REMARK  274  A    between atoms: _690  and  _691
REMARK  275  A    between atoms: _696  and  _697
REMARK  276  A    between atoms: _699  and  _701
REMARK  277  A    between atoms: _701  and  _702
REMARK  278  A    between atoms: _701  and  _704
REMARK  279  A    between atoms: _704  and  _705
REMARK  280  A    between atoms: _708  and  _710
REMARK  281  A    between atoms: _710  and  _711
REMARK  282  A    between atoms: _710  and  _713
REMARK  283  A    between atoms: _713  and  _714
REMARK  284  A    between atoms: _717  and  _719
REMARK  285  A    between atoms: _719  and  _720
REMARK  286  A    between atoms: _719  and  _722
REMARK  287  A    between atoms: _722  and  _723
REMARK  288  A    between atoms: _724  and  _726
REMARK  289  A    between atoms: _726  and  _727
REMARK  290  A    between atoms: _726  and  _729
REMARK  291  A    between atoms: _732  and  _734
REMARK  292  A    between atoms: _734  and  _735
REMARK  293  A    between atoms: _734  and  _737
REMARK  294  A    between atoms: _737  and  _738
REMARK  295  A    between atoms: _738  and  _739
REMARK  296  A    between atoms: _742  and  _744
REMARK  297  A    between atoms: _744  and  _745
REMARK  298  A    between atoms: _744  and  _747
REMARK  299  A    between atoms: _747  and  _748
REMARK  300  A    between atoms: _758  and  _760
REMARK  301  A    between atoms: _760  and  _761
REMARK  302  A    between atoms: _760  and  _763
REMARK  303  A    between atoms: _763  and  _764
REMARK  304  A    between atoms: _767  and  _769
REMARK  305  A    between atoms: _769  and  _770
REMARK  306  A    between atoms: _769  and  _772
REMARK  307  A    between atoms: _772  and  _773
REMARK  308  A    between atoms: _773  and  _774
REMARK  309  A    between atoms: _774  and  _775
REMARK  310  A    between atoms: _784  and  _786
REMARK  311  A    between atoms: _786  and  _787
REMARK  312  A    between atoms: _786  and  _789
REMARK  313  A    between atoms: _789  and  _790
REMARK  314  A    between atoms: _795  and  _796
REMARK                            x       y       z     vdW  Elec       q    Type
REMARK                         _______ _______ _______ _____ _____    ______ ____
ROOT
ATOM      1  O   HOH     1      33.075  -4.627  33.185  0.00  0.00    +0.000 OA
ENDROOT
TORSDOF 0
REMARK  Name = ../refined-set-2016/3qfd/3qfd_pocket.pdb
REMARK  314 active torsions:
REMARK  status: ('A' for Active; 'I' for Inactive)
REMARK    1  A    between atoms: _1  and  _3
REMARK    2  A    between atoms: _3  and  _4
REMARK    3  A    between atoms: _3  and  _6
REMARK    4  A    between atoms: _6  and  _7
REMARK    5  A    between atoms: _7  and  _8
REMARK    6  A    between atoms: _10  and  _12
REMARK    7  A    between atoms: _12  and  _13
REMARK    8  A    between atoms: _12  and  _15
REMARK    9  A    between atoms: _15  and  _16
REMARK   10  A    between atoms: _16  and  _17
REMARK   11  A    between atoms: _17  and  _18
REMARK   12  A    between atoms: _27  and  _29
REMARK   13  A    between atoms: _29  and  _30
REMARK   14  A    between atoms: _29  and  _32
REMARK   15  A    between atoms: _32  and  _33
REMARK   16  A    between atoms: _38  and  _39
REMARK   17  A    between atoms: _41  and  _43
REMARK   18  A    between atoms: _43  and  _44
REMARK   19  A    between atoms: _43  and  _46
REMARK   20  A    between atoms: _46  and  _47
REMARK   21  A    between atoms: _53  and  _55
REMARK   22  A    between atoms: _55  and  _56
REMARK   23  A    between atoms: _55  and  _58
REMARK   24  A    between atoms: _58  and  _59
REMARK   25  A    between atoms: _65  and  _67
REMARK   26  A    between atoms: _67  and  _68
REMARK   27  A    between atoms: _71  and  _73
REMARK   28  A    between atoms: _73  and  _74
REMARK   29  A    between atoms: _73  and  _76
REMARK   30  A    between atoms: _79  and  _81
REMARK   31  A    between atoms: _81  and  _82
REMARK   32  A    between atoms: _84  and  _86
REMARK   33  A    between atoms: _86  and  _87
REMARK   34  A    between atoms: _86  and  _89
REMARK   35  A    between atoms: _92  and  _94
REMARK   36  A    between atoms: _94  and  _95
REMARK   37  A    between atoms: _94  and  _97
REMARK   38  A    between atoms: _97  and  _98
REMARK   39  A    between atoms: _104  and  _106
REMARK   40  A    between atoms: _106  and  _107
REMARK   41  A    between atoms: _106  and  _109
REMARK   42  A    between atoms: _112  and  _114
REMARK   43  A    between atoms: _114  and  _115
REMARK   44  A    between atoms: _114  and  _117
REMARK   45  A    between atoms: _117  and  _118
REMARK   46  A    between atoms: _118  and  _119
REMARK   47  A    between atoms: _121  and  _123
REMARK   48  A    between atoms: _123  and  _124
REMARK   49  A    between atoms: _123  and  _126
REMARK   50  A    between atoms: _126  and  _127
REMARK   51  A    between atoms: _130  and  _132
REMARK   52  A    between atoms: _132  and  _133
REMARK   53  A    between atoms: _132  and  _135
REMARK   54  A    between atoms: _135  and  _136
REMARK   55  A    between atoms: _136  and  _137
REMARK   56  A    between atoms: _140  and  _142
REMARK   57  A    between atoms: _142  and  _143
REMARK   58  A    between atoms: _142  and  _145
REMARK   59  A    between atoms: _145  and  _146
REMARK   60  A    between atoms: _151  and  _152
REMARK   61  A    between atoms: _154  and  _156
REMARK   62  A    between atoms: _156  and  _157
REMARK   63  A    between atoms: _159  and  _161
REMARK   64  A    between atoms: _161  and  _162
REMARK   65  A    between atoms: _161  and  _164
REMARK   66  A    between atoms: _164  and  _165
REMARK   67  A    between atoms: _165  and  _166
REMARK   68  A    between atoms: _169  and  _171
REMARK   69  A    between atoms: _171  and  _172
REMARK   70  A    between atoms: _171  and  _174
REMARK   71  A    between atoms: _174  and  _175
REMARK   72  A    between atoms: _178  and  _180
REMARK   73  A    between atoms: _180  and  _181
REMARK   74  A    between atoms: _180  and  _183
REMARK   75  A    between atoms: _183  and  _184
REMARK   76  A    between atoms: _184  and  _185
REMARK   77  A    between atoms: _185  and  _186
REMARK   78  A    between atoms: _195  and  _197
REMARK   79  A    between atoms: _197  and  _198
REMARK   80  A    between atoms: _197  and  _200
REMARK   81  A    between atoms: _200  and  _201
REMARK   82  A    between atoms: _201  and  _202
REMARK   83  A    between atoms: _202  and  _203
REMARK   84  A    between atoms: _203  and  _204
REMARK   85  A    between atoms: _208  and  _210
REMARK   86  A    between atoms: _210  and  _211
REMARK   87  A    between atoms: _210  and  _213
REMARK   88  A    between atoms: _216  and  _218
REMARK   89  A    between atoms: _218  and  _219
REMARK   90  A    between atoms: _222  and  _224
REMARK   91  A    between atoms: _224  and  _225
REMARK   92  A    between atoms: _224  and  _227
REMARK   93  A    between atoms: _227  and  _228
REMARK   94  A    between atoms: _233  and  _235
REMARK   95  A    between atoms: _235  and  _236
REMARK   96  A    between atoms: _235  and  _238
REMARK   97  A    between atoms: _238  and  _239
REMARK   98  A    between atoms: _241  and  _243
REMARK   99  A    between atoms: _243  and  _244
REMARK  100  A    between atoms: _243  and  _246
REMARK  101  A    between atoms: _246  and  _247
REMARK  102  A    between atoms: _247  and  _248
REMARK  103  A    between atoms: _253  and  _255
REMARK  104  A    between atoms: _255  and  _256
REMARK  105  A    between atoms: _255  and  _258
REMARK  106  A    between atoms: _258  and  _259
REMARK  107  A    between atoms: _262  and  _264
REMARK  108  A    between atoms: _264  and  _265
REMARK  109  A    between atoms: _264  and  _267
REMARK  110  A    between atoms: _267  and  _268
REMARK  111  A    between atoms: _273  and  _275
REMARK  112  A    between atoms: _275  and  _276
REMARK  113  A    between atoms: _275  and  _278
REMARK  114  A    between atoms: _278  and  _279
REMARK  115  A    between atoms: _279  and  _280
REMARK  116  A    between atoms: _280  and  _281
REMARK  117  A    between atoms: _290  and  _292
REMARK  118  A    between atoms: _292  and  _293
REMARK  119  A    between atoms: _292  and  _295
REMARK  120  A    between atoms: _298  and  _300
REMARK  121  A    between atoms: _300  and  _301
REMARK  122  A    between atoms: _300  and  _303
REMARK  123  A    between atoms: _303  and  _304
REMARK  124  A    between atoms: _307  and  _309
REMARK  125  A    between atoms: _309  and  _310
REMARK  126  A    between atoms: _309  and  _312
REMARK  127  A    between atoms: _312  and  _313
REMARK  128  A    between atoms: _316  and  _318
REMARK  129  A    between atoms: _318  and  _319
REMARK  130  A    between atoms: _321  and  _323
REMARK  131  A    between atoms: _323  and  _324
REMARK  132  A    between atoms: _323  and  _326
REMARK  133  A    between atoms: _326  and  _327
REMARK  134  A    between atoms: _330  and  _332
REMARK  135  A    between atoms: _332  and  _333
REMARK  136  A    between atoms: _332  and  _335
REMARK  137  A    between atoms: _335  and  _336
REMARK  138  A    between atoms: _339  and  _341
REMARK  139  A    between atoms: _341  and  _342
REMARK  140  A    between atoms: _341  and  _344
REMARK  141  A    between atoms: _344  and  _345
REMARK  142  A    between atoms: _345  and  _346
REMARK  143  A    between atoms: _346  and  _347
REMARK  144  A    between atoms: _356  and  _358
REMARK  145  A    between atoms: _358  and  _359
REMARK  146  A    between atoms: _358  and  _361
REMARK  147  A    between atoms: _361  and  _362
REMARK  148  A    between atoms: _367  and  _368
REMARK  149  A    between atoms: _370  and  _372
REMARK  150  A    between atoms: _372  and  _373
REMARK  151  A    between atoms: _372  and  _375
REMARK  152  A    between atoms: _378  and  _380
REMARK  153  A    between atoms: _380  and  _381
REMARK  154  A    between atoms: _380  and  _383
REMARK  155  A    between atoms: _383  and  _384
REMARK  156  A    between atoms: _384  and  _385
REMARK  157  A    between atoms: _385  and  _386
REMARK  158  A    between atoms: _395  and  _397
REMARK  159  A    between atoms: _397  and  _398
REMARK  160  A    between atoms: _397  and  _400
REMARK  161  A    between atoms: _400  and  _401
REMARK  162  A    between atoms: _406  and  _407
REMARK  163  A    between atoms: _409  and  _411
REMARK  164  A    between atoms: _411  and  _412
REMARK  165  A    between atoms: _414  and  _416
REMARK  166  A    between atoms: _416  and  _417
REMARK  167  A    between atoms: _416  and  _419
REMARK  168  A    between atoms: _419  and  _420
REMARK  169  A    between atoms: _420  and  _723
REMARK  170  A    between atoms: _421  and  _423
REMARK  171  A    between atoms: _423  and  _424
REMARK  172  A    between atoms: _423  and  _426
REMARK  173  A    between atoms: _426  and  _427
REMARK  174  A    between atoms: _432  and  _434
REMARK  175  A    between atoms: _434  and  _435
REMARK  176  A    between atoms: _434  and  _437
REMARK  177  A    between atoms: _437  and  _438
REMARK  178  A    between atoms: _443  and  _444
REMARK  179  A    between atoms: _446  and  _448
REMARK  180  A    between atoms: _448  and  _449
REMARK  181  A    between atoms: _452  and  _454
REMARK  182  A    between atoms: _454  and  _455
REMARK  183  A    between atoms: _454  and  _457
REMARK  184  A    between atoms: _457  and  _458
REMARK  185  A    between atoms: _463  and  _464
REMARK  186  A    between atoms: _466  and  _468
REMARK  187  A    between atoms: _468  and  _469
REMARK  188  A    between atoms: _468  and  _471
REMARK  189  A    between atoms: _471  and  _472
REMARK  190  A    between atoms: _477  and  _478
REMARK  191  A    between atoms: _480  and  _482
REMARK  192  A    between atoms: _482  and  _483
REMARK  193  A    between atoms: _482  and  _485
REMARK  194  A    between atoms: _485  and  _486
REMARK  195  A    between atoms: _489  and  _491
REMARK  196  A    between atoms: _491  and  _492
REMARK  197  A    between atoms: _491  and  _494
REMARK  198  A    between atoms: _494  and  _495
REMARK  199  A    between atoms: _505  and  _507
REMARK  200  A    between atoms: _507  and  _508
REMARK  201  A    between atoms: _511  and  _513
REMARK  202  A    between atoms: _513  and  _514
REMARK  203  A    between atoms: _517  and  _519
REMARK  204  A    between atoms: _519  and  _520
REMARK  205  A    between atoms: _519  and  _522
REMARK  206  A    between atoms: _522  and  _523
REMARK  207  A    between atoms: _523  and  _524
REMARK  208  A    between atoms: _529  and  _531
REMARK  209  A    between atoms: _531  and  _532
REMARK  210  A    between atoms: _531  and  _534
REMARK  211  A    between atoms: _534  and  _535
REMARK  212  A    between atoms: _538  and  _540
REMARK  213  A    between atoms: _540  and  _541
REMARK  214  A    between atoms: _540  and  _543
REMARK  215  A    between atoms: _543  and  _544
REMARK  216  A    between atoms: _547  and  _549
REMARK  217  A    between atoms: _549  and  _550
REMARK  218  A    between atoms: _549  and  _552
REMARK  219  A    between atoms: _552  and  _553
REMARK  220  A    between atoms: _553  and  _554
REMARK  221  A    between atoms: _554  and  _555
REMARK  222  A    between atoms: _555  and  _556
REMARK  223  A    between atoms: _560  and  _562
REMARK  224  A    between atoms: _562  and  _563
REMARK  225  A    between atoms: _562  and  _565
REMARK  226  A    between atoms: _565  and  _566
REMARK  227  A    between atoms: _571  and  _573
REMARK  228  A    between atoms: _573  and  _574
REMARK  229  A    between atoms: _573  and  _576
REMARK  230  A    between atoms: _576  and  _577
REMARK  231  A    between atoms: _577  and  _578
REMARK  232  A    between atoms: _578  and  _579
REMARK  233  A    between atoms: _579  and  _580
REMARK  234  A    between atoms: _584  and  _586
REMARK  235  A    between atoms: _586  and  _587
REMARK  236  A    between atoms: _586  and  _589
REMARK  237  A    between atoms: _589  and  _590
REMARK  238  A    between atoms: _600  and  _602
REMARK  239  A    between atoms: _602  and  _603
REMARK  240  A    between atoms: _602  and  _605
REMARK  241  A    between atoms: _605  and  _606
REMARK  242  A    between atoms: _606  and  _607
REMARK  243  A    between atoms: _610  and  _612
REMARK  244  A    between atoms: _612  and  _613
REMARK  245  A    between atoms: _616  and  _618
REMARK  246  A    between atoms: _618  and  _619
REMARK  247  A    between atoms: _622  and  _624
REMARK  248  A    between atoms: _624  and  _625
REMARK  249  A    between atoms: _624  and  _627
REMARK  250  A    between atoms: _627  and  _628
REMARK  251  A    between atoms: _633  and  _635
REMARK  252  A    between atoms: _635  and  _636
REMARK  253  A    between atoms: _635  and  _638
REMARK  254  A    between atoms: _641  and  _643
REMARK  255  A    between atoms: _643  and  _644
REMARK  256  A    between atoms: _647  and  _649
REMARK  257  A    between atoms: _649  and  _650
REMARK  258  A    between atoms: _649  and  _652
REMARK  259  A    between atoms: _652  and  _653
REMARK  260  A    between atoms: _653  and  _654
REMARK  261  A    between atoms: _659  and  _661
REMARK  262  A    between atoms: _661  and  _662
REMARK  263  A    between atoms: _661  and  _664
REMARK  264  A    between atoms: _664  and  _665
REMARK  265  A    between atoms: _668  and  _670
REMARK  266  A    between atoms: _670  and  _671
REMARK  267  A    between atoms: _670  and  _673
REMARK  268  A    between atoms: _673  and  _674
REMARK  269  A    between atoms: _674  and  _675
REMARK  270  A    between atoms: _675  and  _676
REMARK  271  A    between atoms: _685  and  _687
REMARK  272  A    between atoms: _687  and  _688
REMARK  273  A    between atoms: _687  and  _690
REMARK  274  A    between atoms: _690  and  _691
REMARK  275  A    between atoms: _696  and  _697
REMARK  276  A    between atoms: _699  and  _701
REMARK  277  A    between atoms: _701  and  _702
REMARK  278  A    between atoms: _701  and  _704
REMARK  279  A    between atoms: _704  and  _705
REMARK  280  A    between atoms: _708  and  _710
REMARK  281  A    between atoms: _710  and  _711
REMARK  282  A    between atoms: _710  and  _713
REMARK  283  A    between atoms: _713  and  _714
REMARK  284  A    between atoms: _717  and  _719
REMARK  285  A    between atoms: _719  and  _720
REMARK  286  A    between atoms: _719  and  _722
REMARK  287  A    between atoms: _722  and  _723
REMARK  288  A    between atoms: _724  and  _726
REMARK  289  A    between atoms: _726  and  _727
REMARK  290  A    between atoms: _726  and  _729
REMARK  291  A    between atoms: _732  and  _734
REMARK  292  A    between atoms: _734  and  _735
REMARK  293  A    between atoms: _734  and  _737
REMARK  294  A    between atoms: _737  and  _738
REMARK  295  A    between atoms: _738  and  _739
REMARK  296  A    between atoms: _742  and  _744
REMARK  297  A    between atoms: _744  and  _745
REMARK  298  A    between atoms: _744  and  _747
REMARK  299  A    between atoms: _747  and  _748
REMARK  300  A    between atoms: _758  and  _760
REMARK  301  A    between atoms: _760  and  _761
REMARK  302  A    between atoms: _760  and  _763
REMARK  303  A    between atoms: _763  and  _764
REMARK  304  A    between atoms: _767  and  _769
REMARK  305  A    between atoms: _769  and  _770
REMARK  306  A    between atoms: _769  and  _772
REMARK  307  A    between atoms: _772  and  _773
REMARK  308  A    between atoms: _773  and  _774
REMARK  309  A    between atoms: _774  and  _775
REMARK  310  A    between atoms: _784  and  _786
REMARK  311  A    between atoms: _786  and  _787
REMARK  312  A    between atoms: _786  and  _789
REMARK  313  A    between atoms: _789  and  _790
REMARK  314  A    between atoms: _795  and  _796
REMARK                            x       y       z     vdW  Elec       q    Type
REMARK                         _______ _______ _______ _____ _____    ______ ____
ROOT
ATOM      1  O   HOH     1      24.689  -4.217  49.109  0.00  0.00    +0.000 OA
ENDROOT
TORSDOF 0
REMARK  Name = ../refined-set-2016/3qfd/3qfd_pocket.pdb
REMARK  314 active torsions:
REMARK  status: ('A' for Active; 'I' for Inactive)
REMARK    1  A    between atoms: _1  and  _3
REMARK    2  A    between atoms: _3  and  _4
REMARK    3  A    between atoms: _3  and  _6
REMARK    4  A    between atoms: _6  and  _7
REMARK    5  A    between atoms: _7  and  _8
REMARK    6  A    between atoms: _10  and  _12
REMARK    7  A    between atoms: _12  and  _13
REMARK    8  A    between atoms: _12  and  _15
REMARK    9  A    between atoms: _15  and  _16
REMARK   10  A    between atoms: _16  and  _17
REMARK   11  A    between atoms: _17  and  _18
REMARK   12  A    between atoms: _27  and  _29
REMARK   13  A    between atoms: _29  and  _30
REMARK   14  A    between atoms: _29  and  _32
REMARK   15  A    between atoms: _32  and  _33
REMARK   16  A    between atoms: _38  and  _39
REMARK   17  A    between atoms: _41  and  _43
REMARK   18  A    between atoms: _43  and  _44
REMARK   19  A    between atoms: _43  and  _46
REMARK   20  A    between atoms: _46  and  _47
REMARK   21  A    between atoms: _53  and  _55
REMARK   22  A    between atoms: _55  and  _56
REMARK   23  A    between atoms: _55  and  _58
REMARK   24  A    between atoms: _58  and  _59
REMARK   25  A    between atoms: _65  and  _67
REMARK   26  A    between atoms: _67  and  _68
REMARK   27  A    between atoms: _71  and  _73
REMARK   28  A    between atoms: _73  and  _74
REMARK   29  A    between atoms: _73  and  _76
REMARK   30  A    between atoms: _79  and  _81
REMARK   31  A    between atoms: _81  and  _82
REMARK   32  A    between atoms: _84  and  _86
REMARK   33  A    between atoms: _86  and  _87
REMARK   34  A    between atoms: _86  and  _89
REMARK   35  A    between atoms: _92  and  _94
REMARK   36  A    between atoms: _94  and  _95
REMARK   37  A    between atoms: _94  and  _97
REMARK   38  A    between atoms: _97  and  _98
REMARK   39  A    between atoms: _104  and  _106
REMARK   40  A    between atoms: _106  and  _107
REMARK   41  A    between atoms: _106  and  _109
REMARK   42  A    between atoms: _112  and  _114
REMARK   43  A    between atoms: _114  and  _115
REMARK   44  A    between atoms: _114  and  _117
REMARK   45  A    between atoms: _117  and  _118
REMARK   46  A    between atoms: _118  and  _119
REMARK   47  A    between atoms: _121  and  _123
REMARK   48  A    between atoms: _123  and  _124
REMARK   49  A    between atoms: _123  and  _126
REMARK   50  A    between atoms: _126  and  _127
REMARK   51  A    between atoms: _130  and  _132
REMARK   52  A    between atoms: _132  and  _133
REMARK   53  A    between atoms: _132  and  _135
REMARK   54  A    between atoms: _135  and  _136
REMARK   55  A    between atoms: _136  and  _137
REMARK   56  A    between atoms: _140  and  _142
REMARK   57  A    between atoms: _142  and  _143
REMARK   58  A    between atoms: _142  and  _145
REMARK   59  A    between atoms: _145  and  _146
REMARK   60  A    between atoms: _151  and  _152
REMARK   61  A    between atoms: _154  and  _156
REMARK   62  A    between atoms: _156  and  _157
REMARK   63  A    between atoms: _159  and  _161
REMARK   64  A    between atoms: _161  and  _162
REMARK   65  A    between atoms: _161  and  _164
REMARK   66  A    between atoms: _164  and  _165
REMARK   67  A    between atoms: _165  and  _166
REMARK   68  A    between atoms: _169  and  _171
REMARK   69  A    between atoms: _171  and  _172
REMARK   70  A    between atoms: _171  and  _174
REMARK   71  A    between atoms: _174  and  _175
REMARK   72  A    between atoms: _178  and  _180
REMARK   73  A    between atoms: _180  and  _181
REMARK   74  A    between atoms: _180  and  _183
REMARK   75  A    between atoms: _183  and  _184
REMARK   76  A    between atoms: _184  and  _185
REMARK   77  A    between atoms: _185  and  _186
REMARK   78  A    between atoms: _195  and  _197
REMARK   79  A    between atoms: _197  and  _198
REMARK   80  A    between atoms: _197  and  _200
REMARK   81  A    between atoms: _200  and  _201
REMARK   82  A    between atoms: _201  and  _202
REMARK   83  A    between atoms: _202  and  _203
REMARK   84  A    between atoms: _203  and  _204
REMARK   85  A    between atoms: _208  and  _210
REMARK   86  A    between atoms: _210  and  _211
REMARK   87  A    between atoms: _210  and  _213
REMARK   88  A    between atoms: _216  and  _218
REMARK   89  A    between atoms: _218  and  _219
REMARK   90  A    between atoms: _222  and  _224
REMARK   91  A    between atoms: _224  and  _225
REMARK   92  A    between atoms: _224  and  _227
REMARK   93  A    between atoms: _227  and  _228
REMARK   94  A    between atoms: _233  and  _235
REMARK   95  A    between atoms: _235  and  _236
REMARK   96  A    between atoms: _235  and  _238
REMARK   97  A    between atoms: _238  and  _239
REMARK   98  A    between atoms: _241  and  _243
REMARK   99  A    between atoms: _243  and  _244
REMARK  100  A    between atoms: _243  and  _246
REMARK  101  A    between atoms: _246  and  _247
REMARK  102  A    between atoms: _247  and  _248
REMARK  103  A    between atoms: _253  and  _255
REMARK  104  A    between atoms: _255  and  _256
REMARK  105  A    between atoms: _255  and  _258
REMARK  106  A    between atoms: _258  and  _259
REMARK  107  A    between atoms: _262  and  _264
REMARK  108  A    between atoms: _264  and  _265
REMARK  109  A    between atoms: _264  and  _267
REMARK  110  A    between atoms: _267  and  _268
REMARK  111  A    between atoms: _273  and  _275
REMARK  112  A    between atoms: _275  and  _276
REMARK  113  A    between atoms: _275  and  _278
REMARK  114  A    between atoms: _278  and  _279
REMARK  115  A    between atoms: _279  and  _280
REMARK  116  A    between atoms: _280  and  _281
REMARK  117  A    between atoms: _290  and  _292
REMARK  118  A    between atoms: _292  and  _293
REMARK  119  A    between atoms: _292  and  _295
REMARK  120  A    between atoms: _298  and  _300
REMARK  121  A    between atoms: _300  and  _301
REMARK  122  A    between atoms: _300  and  _303
REMARK  123  A    between atoms: _303  and  _304
REMARK  124  A    between atoms: _307  and  _309
REMARK  125  A    between atoms: _309  and  _310
REMARK  126  A    between atoms: _309  and  _312
REMARK  127  A    between atoms: _312  and  _313
REMARK  128  A    between atoms: _316  and  _318
REMARK  129  A    between atoms: _318  and  _319
REMARK  130  A    between atoms: _321  and  _323
REMARK  131  A    between atoms: _323  and  _324
REMARK  132  A    between atoms: _323  and  _326
REMARK  133  A    between atoms: _326  and  _327
REMARK  134  A    between atoms: _330  and  _332
REMARK  135  A    between atoms: _332  and  _333
REMARK  136  A    between atoms: _332  and  _335
REMARK  137  A    between atoms: _335  and  _336
REMARK  138  A    between atoms: _339  and  _341
REMARK  139  A    between atoms: _341  and  _342
REMARK  140  A    between atoms: _341  and  _344
REMARK  141  A    between atoms: _344  and  _345
REMARK  142  A    between atoms: _345  and  _346
REMARK  143  A    between atoms: _346  and  _347
REMARK  144  A    between atoms: _356  and  _358
REMARK  145  A    between atoms: _358  and  _359
REMARK  146  A    between atoms: _358  and  _361
REMARK  147  A    between atoms: _361  and  _362
REMARK  148  A    between atoms: _367  and  _368
REMARK  149  A    between atoms: _370  and  _372
REMARK  150  A    between atoms: _372  and  _373
REMARK  151  A    between atoms: _372  and  _375
REMARK  152  A    between atoms: _378  and  _380
REMARK  153  A    between atoms: _380  and  _381
REMARK  154  A    between atoms: _380  and  _383
REMARK  155  A    between atoms: _383  and  _384
REMARK  156  A    between atoms: _384  and  _385
REMARK  157  A    between atoms: _385  and  _386
REMARK  158  A    between atoms: _395  and  _397
REMARK  159  A    between atoms: _397  and  _398
REMARK  160  A    between atoms: _397  and  _400
REMARK  161  A    between atoms: _400  and  _401
REMARK  162  A    between atoms: _406  and  _407
REMARK  163  A    between atoms: _409  and  _411
REMARK  164  A    between atoms: _411  and  _412
REMARK  165  A    between atoms: _414  and  _416
REMARK  166  A    between atoms: _416  and  _417
REMARK  167  A    between atoms: _416  and  _419
REMARK  168  A    between atoms: _419  and  _420
REMARK  169  A    between atoms: _420  and  _723
REMARK  170  A    between atoms: _421  and  _423
REMARK  171  A    between atoms: _423  and  _424
REMARK  172  A    between atoms: _423  and  _426
REMARK  173  A    between atoms: _426  and  _427
REMARK  174  A    between atoms: _432  and  _434
REMARK  175  A    between atoms: _434  and  _435
REMARK  176  A    between atoms: _434  and  _437
REMARK  177  A    between atoms: _437  and  _438
REMARK  178  A    between atoms: _443  and  _444
REMARK  179  A    between atoms: _446  and  _448
REMARK  180  A    between atoms: _448  and  _449
REMARK  181  A    between atoms: _452  and  _454
REMARK  182  A    between atoms: _454  and  _455
REMARK  183  A    between atoms: _454  and  _457
REMARK  184  A    between atoms: _457  and  _458
REMARK  185  A    between atoms: _463  and  _464
REMARK  186  A    between atoms: _466  and  _468
REMARK  187  A    between atoms: _468  and  _469
REMARK  188  A    between atoms: _468  and  _471
REMARK  189  A    between atoms: _471  and  _472
REMARK  190  A    between atoms: _477  and  _478
REMARK  191  A    between atoms: _480  and  _482
REMARK  192  A    between atoms: _482  and  _483
REMARK  193  A    between atoms: _482  and  _485
REMARK  194  A    between atoms: _485  and  _486
REMARK  195  A    between atoms: _489  and  _491
REMARK  196  A    between atoms: _491  and  _492
REMARK  197  A    between atoms: _491  and  _494
REMARK  198  A    between atoms: _494  and  _495
REMARK  199  A    between atoms: _505  and  _507
REMARK  200  A    between atoms: _507  and  _508
REMARK  201  A    between atoms: _511  and  _513
REMARK  202  A    between atoms: _513  and  _514
REMARK  203  A    between atoms: _517  and  _519
REMARK  204  A    between atoms: _519  and  _520
REMARK  205  A    between atoms: _519  and  _522
REMARK  206  A    between atoms: _522  and  _523
REMARK  207  A    between atoms: _523  and  _524
REMARK  208  A    between atoms: _529  and  _531
REMARK  209  A    between atoms: _531  and  _532
REMARK  210  A    between atoms: _531  and  _534
REMARK  211  A    between atoms: _534  and  _535
REMARK  212  A    between atoms: _538  and  _540
REMARK  213  A    between atoms: _540  and  _541
REMARK  214  A    between atoms: _540  and  _543
REMARK  215  A    between atoms: _543  and  _544
REMARK  216  A    between atoms: _547  and  _549
REMARK  217  A    between atoms: _549  and  _550
REMARK  218  A    between atoms: _549  and  _552
REMARK  219  A    between atoms: _552  and  _553
REMARK  220  A    between atoms: _553  and  _554
REMARK  221  A    between atoms: _554  and  _555
REMARK  222  A    between atoms: _555  and  _556
REMARK  223  A    between atoms: _560  and  _562
REMARK  224  A    between atoms: _562  and  _563
REMARK  225  A    between atoms: _562  and  _565
REMARK  226  A    between atoms: _565  and  _566
REMARK  227  A    between atoms: _571  and  _573
REMARK  228  A    between atoms: _573  and  _574
REMARK  229  A    between atoms: _573  and  _576
REMARK  230  A    between atoms: _576  and  _577
REMARK  231  A    between atoms: _577  and  _578
REMARK  232  A    between atoms: _578  and  _579
REMARK  233  A    between atoms: _579  and  _580
REMARK  234  A    between atoms: _584  and  _586
REMARK  235  A    between atoms: _586  and  _587
REMARK  236  A    between atoms: _586  and  _589
REMARK  237  A    between atoms: _589  and  _590
REMARK  238  A    between atoms: _600  and  _602
REMARK  239  A    between atoms: _602  and  _603
REMARK  240  A    between atoms: _602  and  _605
REMARK  241  A    between atoms: _605  and  _606
REMARK  242  A    between atoms: _606  and  _607
REMARK  243  A    between atoms: _610  and  _612
REMARK  244  A    between atoms: _612  and  _613
REMARK  245  A    between atoms: _616  and  _618
REMARK  246  A    between atoms: _618  and  _619
REMARK  247  A    between atoms: _622  and  _624
REMARK  248  A    between atoms: _624  and  _625
REMARK  249  A    between atoms: _624  and  _627
REMARK  250  A    between atoms: _627  and  _628
REMARK  251  A    between atoms: _633  and  _635
REMARK  252  A    between atoms: _635  and  _636
REMARK  253  A    between atoms: _635  and  _638
REMARK  254  A    between atoms: _641  and  _643
REMARK  255  A    between atoms: _643  and  _644
REMARK  256  A    between atoms: _647  and  _649
REMARK  257  A    between atoms: _649  and  _650
REMARK  258  A    between atoms: _649  and  _652
REMARK  259  A    between atoms: _652  and  _653
REMARK  260  A    between atoms: _653  and  _654
REMARK  261  A    between atoms: _659  and  _661
REMARK  262  A    between atoms: _661  and  _662
REMARK  263  A    between atoms: _661  and  _664
REMARK  264  A    between atoms: _664  and  _665
REMARK  265  A    between atoms: _668  and  _670
REMARK  266  A    between atoms: _670  and  _671
REMARK  267  A    between atoms: _670  and  _673
REMARK  268  A    between atoms: _673  and  _674
REMARK  269  A    between atoms: _674  and  _675
REMARK  270  A    between atoms: _675  and  _676
REMARK  271  A    between atoms: _685  and  _687
REMARK  272  A    between atoms: _687  and  _688
REMARK  273  A    between atoms: _687  and  _690
REMARK  274  A    between atoms: _690  and  _691
REMARK  275  A    between atoms: _696  and  _697
REMARK  276  A    between atoms: _699  and  _701
REMARK  277  A    between atoms: _701  and  _702
REMARK  278  A    between atoms: _701  and  _704
REMARK  279  A    between atoms: _704  and  _705
REMARK  280  A    between atoms: _708  and  _710
REMARK  281  A    between atoms: _710  and  _711
REMARK  282  A    between atoms: _710  and  _713
REMARK  283  A    between atoms: _713  and  _714
REMARK  284  A    between atoms: _717  and  _719
REMARK  285  A    between atoms: _719  and  _720
REMARK  286  A    between atoms: _719  and  _722
REMARK  287  A    between atoms: _722  and  _723
REMARK  288  A    between atoms: _724  and  _726
REMARK  289  A    between atoms: _726  and  _727
REMARK  290  A    between atoms: _726  and  _729
REMARK  291  A    between atoms: _732  and  _734
REMARK  292  A    between atoms: _734  and  _735
REMARK  293  A    between atoms: _734  and  _737
REMARK  294  A    between atoms: _737  and  _738
REMARK  295  A    between atoms: _738  and  _739
REMARK  296  A    between atoms: _742  and  _744
REMARK  297  A    between atoms: _744  and  _745
REMARK  298  A    between atoms: _744  and  _747
REMARK  299  A    between atoms: _747  and  _748
REMARK  300  A    between atoms: _758  and  _760
REMARK  301  A    between atoms: _760  and  _761
REMARK  302  A    between atoms: _760  and  _763
REMARK  303  A    between atoms: _763  and  _764
REMARK  304  A    between atoms: _767  and  _769
REMARK  305  A    between atoms: _769  and  _770
REMARK  306  A    between atoms: _769  and  _772
REMARK  307  A    between atoms: _772  and  _773
REMARK  308  A    between atoms: _773  and  _774
REMARK  309  A    between atoms: _774  and  _775
REMARK  310  A    between atoms: _784  and  _786
REMARK  311  A    between atoms: _786  and  _787
REMARK  312  A    between atoms: _786  and  _789
REMARK  313  A    between atoms: _789  and  _790
REMARK  314  A    between atoms: _795  and  _796
REMARK                            x       y       z     vdW  Elec       q    Type
REMARK                         _______ _______ _______ _____ _____    ______ ____
ROOT
ATOM      1  O   HOH     1      43.384   3.682  23.570  0.00  0.00    +0.000 OA
ENDROOT
TORSDOF 0
REMARK  Name = ../refined-set-2016/3qfd/3qfd_pocket.pdb
REMARK  314 active torsions:
REMARK  status: ('A' for Active; 'I' for Inactive)
REMARK    1  A    between atoms: _1  and  _3
REMARK    2  A    between atoms: _3  and  _4
REMARK    3  A    between atoms: _3  and  _6
REMARK    4  A    between atoms: _6  and  _7
REMARK    5  A    between atoms: _7  and  _8
REMARK    6  A    between atoms: _10  and  _12
REMARK    7  A    between atoms: _12  and  _13
REMARK    8  A    between atoms: _12  and  _15
REMARK    9  A    between atoms: _15  and  _16
REMARK   10  A    between atoms: _16  and  _17
REMARK   11  A    between atoms: _17  and  _18
REMARK   12  A    between atoms: _27  and  _29
REMARK   13  A    between atoms: _29  and  _30
REMARK   14  A    between atoms: _29  and  _32
REMARK   15  A    between atoms: _32  and  _33
REMARK   16  A    between atoms: _38  and  _39
REMARK   17  A    between atoms: _41  and  _43
REMARK   18  A    between atoms: _43  and  _44
REMARK   19  A    between atoms: _43  and  _46
REMARK   20  A    between atoms: _46  and  _47
REMARK   21  A    between atoms: _53  and  _55
REMARK   22  A    between atoms: _55  and  _56
REMARK   23  A    between atoms: _55  and  _58
REMARK   24  A    between atoms: _58  and  _59
REMARK   25  A    between atoms: _65  and  _67
REMARK   26  A    between atoms: _67  and  _68
REMARK   27  A    between atoms: _71  and  _73
REMARK   28  A    between atoms: _73  and  _74
REMARK   29  A    between atoms: _73  and  _76
REMARK   30  A    between atoms: _79  and  _81
REMARK   31  A    between atoms: _81  and  _82
REMARK   32  A    between atoms: _84  and  _86
REMARK   33  A    between atoms: _86  and  _87
REMARK   34  A    between atoms: _86  and  _89
REMARK   35  A    between atoms: _92  and  _94
REMARK   36  A    between atoms: _94  and  _95
REMARK   37  A    between atoms: _94  and  _97
REMARK   38  A    between atoms: _97  and  _98
REMARK   39  A    between atoms: _104  and  _106
REMARK   40  A    between atoms: _106  and  _107
REMARK   41  A    between atoms: _106  and  _109
REMARK   42  A    between atoms: _112  and  _114
REMARK   43  A    between atoms: _114  and  _115
REMARK   44  A    between atoms: _114  and  _117
REMARK   45  A    between atoms: _117  and  _118
REMARK   46  A    between atoms: _118  and  _119
REMARK   47  A    between atoms: _121  and  _123
REMARK   48  A    between atoms: _123  and  _124
REMARK   49  A    between atoms: _123  and  _126
REMARK   50  A    between atoms: _126  and  _127
REMARK   51  A    between atoms: _130  and  _132
REMARK   52  A    between atoms: _132  and  _133
REMARK   53  A    between atoms: _132  and  _135
REMARK   54  A    between atoms: _135  and  _136
REMARK   55  A    between atoms: _136  and  _137
REMARK   56  A    between atoms: _140  and  _142
REMARK   57  A    between atoms: _142  and  _143
REMARK   58  A    between atoms: _142  and  _145
REMARK   59  A    between atoms: _145  and  _146
REMARK   60  A    between atoms: _151  and  _152
REMARK   61  A    between atoms: _154  and  _156
REMARK   62  A    between atoms: _156  and  _157
REMARK   63  A    between atoms: _159  and  _161
REMARK   64  A    between atoms: _161  and  _162
REMARK   65  A    between atoms: _161  and  _164
REMARK   66  A    between atoms: _164  and  _165
REMARK   67  A    between atoms: _165  and  _166
REMARK   68  A    between atoms: _169  and  _171
REMARK   69  A    between atoms: _171  and  _172
REMARK   70  A    between atoms: _171  and  _174
REMARK   71  A    between atoms: _174  and  _175
REMARK   72  A    between atoms: _178  and  _180
REMARK   73  A    between atoms: _180  and  _181
REMARK   74  A    between atoms: _180  and  _183
REMARK   75  A    between atoms: _183  and  _184
REMARK   76  A    between atoms: _184  and  _185
REMARK   77  A    between atoms: _185  and  _186
REMARK   78  A    between atoms: _195  and  _197
REMARK   79  A    between atoms: _197  and  _198
REMARK   80  A    between atoms: _197  and  _200
REMARK   81  A    between atoms: _200  and  _201
REMARK   82  A    between atoms: _201  and  _202
REMARK   83  A    between atoms: _202  and  _203
REMARK   84  A    between atoms: _203  and  _204
REMARK   85  A    between atoms: _208  and  _210
REMARK   86  A    between atoms: _210  and  _211
REMARK   87  A    between atoms: _210  and  _213
REMARK   88  A    between atoms: _216  and  _218
REMARK   89  A    between atoms: _218  and  _219
REMARK   90  A    between atoms: _222  and  _224
REMARK   91  A    between atoms: _224  and  _225
REMARK   92  A    between atoms: _224  and  _227
REMARK   93  A    between atoms: _227  and  _228
REMARK   94  A    between atoms: _233  and  _235
REMARK   95  A    between atoms: _235  and  _236
REMARK   96  A    between atoms: _235  and  _238
REMARK   97  A    between atoms: _238  and  _239
REMARK   98  A    between atoms: _241  and  _243
REMARK   99  A    between atoms: _243  and  _244
REMARK  100  A    between atoms: _243  and  _246
REMARK  101  A    between atoms: _246  and  _247
REMARK  102  A    between atoms: _247  and  _248
REMARK  103  A    between atoms: _253  and  _255
REMARK  104  A    between atoms: _255  and  _256
REMARK  105  A    between atoms: _255  and  _258
REMARK  106  A    between atoms: _258  and  _259
REMARK  107  A    between atoms: _262  and  _264
REMARK  108  A    between atoms: _264  and  _265
REMARK  109  A    between atoms: _264  and  _267
REMARK  110  A    between atoms: _267  and  _268
REMARK  111  A    between atoms: _273  and  _275
REMARK  112  A    between atoms: _275  and  _276
REMARK  113  A    between atoms: _275  and  _278
REMARK  114  A    between atoms: _278  and  _279
REMARK  115  A    between atoms: _279  and  _280
REMARK  116  A    between atoms: _280  and  _281
REMARK  117  A    between atoms: _290  and  _292
REMARK  118  A    between atoms: _292  and  _293
REMARK  119  A    between atoms: _292  and  _295
REMARK  120  A    between atoms: _298  and  _300
REMARK  121  A    between atoms: _300  and  _301
REMARK  122  A    between atoms: _300  and  _303
REMARK  123  A    between atoms: _303  and  _304
REMARK  124  A    between atoms: _307  and  _309
REMARK  125  A    between atoms: _309  and  _310
REMARK  126  A    between atoms: _309  and  _312
REMARK  127  A    between atoms: _312  and  _313
REMARK  128  A    between atoms: _316  and  _318
REMARK  129  A    between atoms: _318  and  _319
REMARK  130  A    between atoms: _321  and  _323
REMARK  131  A    between atoms: _323  and  _324
REMARK  132  A    between atoms: _323  and  _326
REMARK  133  A    between atoms: _326  and  _327
REMARK  134  A    between atoms: _330  and  _332
REMARK  135  A    between atoms: _332  and  _333
REMARK  136  A    between atoms: _332  and  _335
REMARK  137  A    between atoms: _335  and  _336
REMARK  138  A    between atoms: _339  and  _341
REMARK  139  A    between atoms: _341  and  _342
REMARK  140  A    between atoms: _341  and  _344
REMARK  141  A    between atoms: _344  and  _345
REMARK  142  A    between atoms: _345  and  _346
REMARK  143  A    between atoms: _346  and  _347
REMARK  144  A    between atoms: _356  and  _358
REMARK  145  A    between atoms: _358  and  _359
REMARK  146  A    between atoms: _358  and  _361
REMARK  147  A    between atoms: _361  and  _362
REMARK  148  A    between atoms: _367  and  _368
REMARK  149  A    between atoms: _370  and  _372
REMARK  150  A    between atoms: _372  and  _373
REMARK  151  A    between atoms: _372  and  _375
REMARK  152  A    between atoms: _378  and  _380
REMARK  153  A    between atoms: _380  and  _381
REMARK  154  A    between atoms: _380  and  _383
REMARK  155  A    between atoms: _383  and  _384
REMARK  156  A    between atoms: _384  and  _385
REMARK  157  A    between atoms: _385  and  _386
REMARK  158  A    between atoms: _395  and  _397
REMARK  159  A    between atoms: _397  and  _398
REMARK  160  A    between atoms: _397  and  _400
REMARK  161  A    between atoms: _400  and  _401
REMARK  162  A    between atoms: _406  and  _407
REMARK  163  A    between atoms: _409  and  _411
REMARK  164  A    between atoms: _411  and  _412
REMARK  165  A    between atoms: _414  and  _416
REMARK  166  A    between atoms: _416  and  _417
REMARK  167  A    between atoms: _416  and  _419
REMARK  168  A    between atoms: _419  and  _420
REMARK  169  A    between atoms: _420  and  _723
REMARK  170  A    between atoms: _421  and  _423
REMARK  171  A    between atoms: _423  and  _424
REMARK  172  A    between atoms: _423  and  _426
REMARK  173  A    between atoms: _426  and  _427
REMARK  174  A    between atoms: _432  and  _434
REMARK  175  A    between atoms: _434  and  _435
REMARK  176  A    between atoms: _434  and  _437
REMARK  177  A    between atoms: _437  and  _438
REMARK  178  A    between atoms: _443  and  _444
REMARK  179  A    between atoms: _446  and  _448
REMARK  180  A    between atoms: _448  and  _449
REMARK  181  A    between atoms: _452  and  _454
REMARK  182  A    between atoms: _454  and  _455
REMARK  183  A    between atoms: _454  and  _457
REMARK  184  A    between atoms: _457  and  _458
REMARK  185  A    between atoms: _463  and  _464
REMARK  186  A    between atoms: _466  and  _468
REMARK  187  A    between atoms: _468  and  _469
REMARK  188  A    between atoms: _468  and  _471
REMARK  189  A    between atoms: _471  and  _472
REMARK  190  A    between atoms: _477  and  _478
REMARK  191  A    between atoms: _480  and  _482
REMARK  192  A    between atoms: _482  and  _483
REMARK  193  A    between atoms: _482  and  _485
REMARK  194  A    between atoms: _485  and  _486
REMARK  195  A    between atoms: _489  and  _491
REMARK  196  A    between atoms: _491  and  _492
REMARK  197  A    between atoms: _491  and  _494
REMARK  198  A    between atoms: _494  and  _495
REMARK  199  A    between atoms: _505  and  _507
REMARK  200  A    between atoms: _507  and  _508
REMARK  201  A    between atoms: _511  and  _513
REMARK  202  A    between atoms: _513  and  _514
REMARK  203  A    between atoms: _517  and  _519
REMARK  204  A    between atoms: _519  and  _520
REMARK  205  A    between atoms: _519  and  _522
REMARK  206  A    between atoms: _522  and  _523
REMARK  207  A    between atoms: _523  and  _524
REMARK  208  A    between atoms: _529  and  _531
REMARK  209  A    between atoms: _531  and  _532
REMARK  210  A    between atoms: _531  and  _534
REMARK  211  A    between atoms: _534  and  _535
REMARK  212  A    between atoms: _538  and  _540
REMARK  213  A    between atoms: _540  and  _541
REMARK  214  A    between atoms: _540  and  _543
REMARK  215  A    between atoms: _543  and  _544
REMARK  216  A    between atoms: _547  and  _549
REMARK  217  A    between atoms: _549  and  _550
REMARK  218  A    between atoms: _549  and  _552
REMARK  219  A    between atoms: _552  and  _553
REMARK  220  A    between atoms: _553  and  _554
REMARK  221  A    between atoms: _554  and  _555
REMARK  222  A    between atoms: _555  and  _556
REMARK  223  A    between atoms: _560  and  _562
REMARK  224  A    between atoms: _562  and  _563
REMARK  225  A    between atoms: _562  and  _565
REMARK  226  A    between atoms: _565  and  _566
REMARK  227  A    between atoms: _571  and  _573
REMARK  228  A    between atoms: _573  and  _574
REMARK  229  A    between atoms: _573  and  _576
REMARK  230  A    between atoms: _576  and  _577
REMARK  231  A    between atoms: _577  and  _578
REMARK  232  A    between atoms: _578  and  _579
REMARK  233  A    between atoms: _579  and  _580
REMARK  234  A    between atoms: _584  and  _586
REMARK  235  A    between atoms: _586  and  _587
REMARK  236  A    between atoms: _586  and  _589
REMARK  237  A    between atoms: _589  and  _590
REMARK  238  A    between atoms: _600  and  _602
REMARK  239  A    between atoms: _602  and  _603
REMARK  240  A    between atoms: _602  and  _605
REMARK  241  A    between atoms: _605  and  _606
REMARK  242  A    between atoms: _606  and  _607
REMARK  243  A    between atoms: _610  and  _612
REMARK  244  A    between atoms: _612  and  _613
REMARK  245  A    between atoms: _616  and  _618
REMARK  246  A    between atoms: _618  and  _619
REMARK  247  A    between atoms: _622  and  _624
REMARK  248  A    between atoms: _624  and  _625
REMARK  249  A    between atoms: _624  and  _627
REMARK  250  A    between atoms: _627  and  _628
REMARK  251  A    between atoms: _633  and  _635
REMARK  252  A    between atoms: _635  and  _636
REMARK  253  A    between atoms: _635  and  _638
REMARK  254  A    between atoms: _641  and  _643
REMARK  255  A    between atoms: _643  and  _644
REMARK  256  A    between atoms: _647  and  _649
REMARK  257  A    between atoms: _649  and  _650
REMARK  258  A    between atoms: _649  and  _652
REMARK  259  A    between atoms: _652  and  _653
REMARK  260  A    between atoms: _653  and  _654
REMARK  261  A    between atoms: _659  and  _661
REMARK  262  A    between atoms: _661  and  _662
REMARK  263  A    between atoms: _661  and  _664
REMARK  264  A    between atoms: _664  and  _665
REMARK  265  A    between atoms: _668  and  _670
REMARK  266  A    between atoms: _670  and  _671
REMARK  267  A    between atoms: _670  and  _673
REMARK  268  A    between atoms: _673  and  _674
REMARK  269  A    between atoms: _674  and  _675
REMARK  270  A    between atoms: _675  and  _676
REMARK  271  A    between atoms: _685  and  _687
REMARK  272  A    between atoms: _687  and  _688
REMARK  273  A    between atoms: _687  and  _690
REMARK  274  A    between atoms: _690  and  _691
REMARK  275  A    between atoms: _696  and  _697
REMARK  276  A    between atoms: _699  and  _701
REMARK  277  A    between atoms: _701  and  _702
REMARK  278  A    between atoms: _701  and  _704
REMARK  279  A    between atoms: _704  and  _705
REMARK  280  A    between atoms: _708  and  _710
REMARK  281  A    between atoms: _710  and  _711
REMARK  282  A    between atoms: _710  and  _713
REMARK  283  A    between atoms: _713  and  _714
REMARK  284  A    between atoms: _717  and  _719
REMARK  285  A    between atoms: _719  and  _720
REMARK  286  A    between atoms: _719  and  _722
REMARK  287  A    between atoms: _722  and  _723
REMARK  288  A    between atoms: _724  and  _726
REMARK  289  A    between atoms: _726  and  _727
REMARK  290  A    between atoms: _726  and  _729
REMARK  291  A    between atoms: _732  and  _734
REMARK  292  A    between atoms: _734  and  _735
REMARK  293  A    between atoms: _734  and  _737
REMARK  294  A    between atoms: _737  and  _738
REMARK  295  A    between atoms: _738  and  _739
REMARK  296  A    between atoms: _742  and  _744
REMARK  297  A    between atoms: _744  and  _745
REMARK  298  A    between atoms: _744  and  _747
REMARK  299  A    between atoms: _747  and  _748
REMARK  300  A    between atoms: _758  and  _760
REMARK  301  A    between atoms: _760  and  _761
REMARK  302  A    between atoms: _760  and  _763
REMARK  303  A    between atoms: _763  and  _764
REMARK  304  A    between atoms: _767  and  _769
REMARK  305  A    between atoms: _769  and  _770
REMARK  306  A    between atoms: _769  and  _772
REMARK  307  A    between atoms: _772  and  _773
REMARK  308  A    between atoms: _773  and  _774
REMARK  309  A    between atoms: _774  and  _775
REMARK  310  A    between atoms: _784  and  _786
REMARK  311  A    between atoms: _786  and  _787
REMARK  312  A    between atoms: _786  and  _789
REMARK  313  A    between atoms: _789  and  _790
REMARK  314  A    between atoms: _795  and  _796
REMARK                            x       y       z     vdW  Elec       q    Type
REMARK                         _______ _______ _______ _____ _____    ______ ____
ROOT
ATOM      1  O   HOH     1      28.990  -2.425  48.150  0.00  0.00    +0.000 OA
ENDROOT
TORSDOF 0
REMARK  Name = ../refined-set-2016/3qfd/3qfd_pocket.pdb
REMARK  314 active torsions:
REMARK  status: ('A' for Active; 'I' for Inactive)
REMARK    1  A    between atoms: _1  and  _3
REMARK    2  A    between atoms: _3  and  _4
REMARK    3  A    between atoms: _3  and  _6
REMARK    4  A    between atoms: _6  and  _7
REMARK    5  A    between atoms: _7  and  _8
REMARK    6  A    between atoms: _10  and  _12
REMARK    7  A    between atoms: _12  and  _13
REMARK    8  A    between atoms: _12  and  _15
REMARK    9  A    between atoms: _15  and  _16
REMARK   10  A    between atoms: _16  and  _17
REMARK   11  A    between atoms: _17  and  _18
REMARK   12  A    between atoms: _27  and  _29
REMARK   13  A    between atoms: _29  and  _30
REMARK   14  A    between atoms: _29  and  _32
REMARK   15  A    between atoms: _32  and  _33
REMARK   16  A    between atoms: _38  and  _39
REMARK   17  A    between atoms: _41  and  _43
REMARK   18  A    between atoms: _43  and  _44
REMARK   19  A    between atoms: _43  and  _46
REMARK   20  A    between atoms: _46  and  _47
REMARK   21  A    between atoms: _53  and  _55
REMARK   22  A    between atoms: _55  and  _56
REMARK   23  A    between atoms: _55  and  _58
REMARK   24  A    between atoms: _58  and  _59
REMARK   25  A    between atoms: _65  and  _67
REMARK   26  A    between atoms: _67  and  _68
REMARK   27  A    between atoms: _71  and  _73
REMARK   28  A    between atoms: _73  and  _74
REMARK   29  A    between atoms: _73  and  _76
REMARK   30  A    between atoms: _79  and  _81
REMARK   31  A    between atoms: _81  and  _82
REMARK   32  A    between atoms: _84  and  _86
REMARK   33  A    between atoms: _86  and  _87
REMARK   34  A    between atoms: _86  and  _89
REMARK   35  A    between atoms: _92  and  _94
REMARK   36  A    between atoms: _94  and  _95
REMARK   37  A    between atoms: _94  and  _97
REMARK   38  A    between atoms: _97  and  _98
REMARK   39  A    between atoms: _104  and  _106
REMARK   40  A    between atoms: _106  and  _107
REMARK   41  A    between atoms: _106  and  _109
REMARK   42  A    between atoms: _112  and  _114
REMARK   43  A    between atoms: _114  and  _115
REMARK   44  A    between atoms: _114  and  _117
REMARK   45  A    between atoms: _117  and  _118
REMARK   46  A    between atoms: _118  and  _119
REMARK   47  A    between atoms: _121  and  _123
REMARK   48  A    between atoms: _123  and  _124
REMARK   49  A    between atoms: _123  and  _126
REMARK   50  A    between atoms: _126  and  _127
REMARK   51  A    between atoms: _130  and  _132
REMARK   52  A    between atoms: _132  and  _133
REMARK   53  A    between atoms: _132  and  _135
REMARK   54  A    between atoms: _135  and  _136
REMARK   55  A    between atoms: _136  and  _137
REMARK   56  A    between atoms: _140  and  _142
REMARK   57  A    between atoms: _142  and  _143
REMARK   58  A    between atoms: _142  and  _145
REMARK   59  A    between atoms: _145  and  _146
REMARK   60  A    between atoms: _151  and  _152
REMARK   61  A    between atoms: _154  and  _156
REMARK   62  A    between atoms: _156  and  _157
REMARK   63  A    between atoms: _159  and  _161
REMARK   64  A    between atoms: _161  and  _162
REMARK   65  A    between atoms: _161  and  _164
REMARK   66  A    between atoms: _164  and  _165
REMARK   67  A    between atoms: _165  and  _166
REMARK   68  A    between atoms: _169  and  _171
REMARK   69  A    between atoms: _171  and  _172
REMARK   70  A    between atoms: _171  and  _174
REMARK   71  A    between atoms: _174  and  _175
REMARK   72  A    between atoms: _178  and  _180
REMARK   73  A    between atoms: _180  and  _181
REMARK   74  A    between atoms: _180  and  _183
REMARK   75  A    between atoms: _183  and  _184
REMARK   76  A    between atoms: _184  and  _185
REMARK   77  A    between atoms: _185  and  _186
REMARK   78  A    between atoms: _195  and  _197
REMARK   79  A    between atoms: _197  and  _198
REMARK   80  A    between atoms: _197  and  _200
REMARK   81  A    between atoms: _200  and  _201
REMARK   82  A    between atoms: _201  and  _202
REMARK   83  A    between atoms: _202  and  _203
REMARK   84  A    between atoms: _203  and  _204
REMARK   85  A    between atoms: _208  and  _210
REMARK   86  A    between atoms: _210  and  _211
REMARK   87  A    between atoms: _210  and  _213
REMARK   88  A    between atoms: _216  and  _218
REMARK   89  A    between atoms: _218  and  _219
REMARK   90  A    between atoms: _222  and  _224
REMARK   91  A    between atoms: _224  and  _225
REMARK   92  A    between atoms: _224  and  _227
REMARK   93  A    between atoms: _227  and  _228
REMARK   94  A    between atoms: _233  and  _235
REMARK   95  A    between atoms: _235  and  _236
REMARK   96  A    between atoms: _235  and  _238
REMARK   97  A    between atoms: _238  and  _239
REMARK   98  A    between atoms: _241  and  _243
REMARK   99  A    between atoms: _243  and  _244
REMARK  100  A    between atoms: _243  and  _246
REMARK  101  A    between atoms: _246  and  _247
REMARK  102  A    between atoms: _247  and  _248
REMARK  103  A    between atoms: _253  and  _255
REMARK  104  A    between atoms: _255  and  _256
REMARK  105  A    between atoms: _255  and  _258
REMARK  106  A    between atoms: _258  and  _259
REMARK  107  A    between atoms: _262  and  _264
REMARK  108  A    between atoms: _264  and  _265
REMARK  109  A    between atoms: _264  and  _267
REMARK  110  A    between atoms: _267  and  _268
REMARK  111  A    between atoms: _273  and  _275
REMARK  112  A    between atoms: _275  and  _276
REMARK  113  A    between atoms: _275  and  _278
REMARK  114  A    between atoms: _278  and  _279
REMARK  115  A    between atoms: _279  and  _280
REMARK  116  A    between atoms: _280  and  _281
REMARK  117  A    between atoms: _290  and  _292
REMARK  118  A    between atoms: _292  and  _293
REMARK  119  A    between atoms: _292  and  _295
REMARK  120  A    between atoms: _298  and  _300
REMARK  121  A    between atoms: _300  and  _301
REMARK  122  A    between atoms: _300  and  _303
REMARK  123  A    between atoms: _303  and  _304
REMARK  124  A    between atoms: _307  and  _309
REMARK  125  A    between atoms: _309  and  _310
REMARK  126  A    between atoms: _309  and  _312
REMARK  127  A    between atoms: _312  and  _313
REMARK  128  A    between atoms: _316  and  _318
REMARK  129  A    between atoms: _318  and  _319
REMARK  130  A    between atoms: _321  and  _323
REMARK  131  A    between atoms: _323  and  _324
REMARK  132  A    between atoms: _323  and  _326
REMARK  133  A    between atoms: _326  and  _327
REMARK  134  A    between atoms: _330  and  _332
REMARK  135  A    between atoms: _332  and  _333
REMARK  136  A    between atoms: _332  and  _335
REMARK  137  A    between atoms: _335  and  _336
REMARK  138  A    between atoms: _339  and  _341
REMARK  139  A    between atoms: _341  and  _342
REMARK  140  A    between atoms: _341  and  _344
REMARK  141  A    between atoms: _344  and  _345
REMARK  142  A    between atoms: _345  and  _346
REMARK  143  A    between atoms: _346  and  _347
REMARK  144  A    between atoms: _356  and  _358
REMARK  145  A    between atoms: _358  and  _359
REMARK  146  A    between atoms: _358  and  _361
REMARK  147  A    between atoms: _361  and  _362
REMARK  148  A    between atoms: _367  and  _368
REMARK  149  A    between atoms: _370  and  _372
REMARK  150  A    between atoms: _372  and  _373
REMARK  151  A    between atoms: _372  and  _375
REMARK  152  A    between atoms: _378  and  _380
REMARK  153  A    between atoms: _380  and  _381
REMARK  154  A    between atoms: _380  and  _383
REMARK  155  A    between atoms: _383  and  _384
REMARK  156  A    between atoms: _384  and  _385
REMARK  157  A    between atoms: _385  and  _386
REMARK  158  A    between atoms: _395  and  _397
REMARK  159  A    between atoms: _397  and  _398
REMARK  160  A    between atoms: _397  and  _400
REMARK  161  A    between atoms: _400  and  _401
REMARK  162  A    between atoms: _406  and  _407
REMARK  163  A    between atoms: _409  and  _411
REMARK  164  A    between atoms: _411  and  _412
REMARK  165  A    between atoms: _414  and  _416
REMARK  166  A    between atoms: _416  and  _417
REMARK  167  A    between atoms: _416  and  _419
REMARK  168  A    between atoms: _419  and  _420
REMARK  169  A    between atoms: _420  and  _723
REMARK  170  A    between atoms: _421  and  _423
REMARK  171  A    between atoms: _423  and  _424
REMARK  172  A    between atoms: _423  and  _426
REMARK  173  A    between atoms: _426  and  _427
REMARK  174  A    between atoms: _432  and  _434
REMARK  175  A    between atoms: _434  and  _435
REMARK  176  A    between atoms: _434  and  _437
REMARK  177  A    between atoms: _437  and  _438
REMARK  178  A    between atoms: _443  and  _444
REMARK  179  A    between atoms: _446  and  _448
REMARK  180  A    between atoms: _448  and  _449
REMARK  181  A    between atoms: _452  and  _454
REMARK  182  A    between atoms: _454  and  _455
REMARK  183  A    between atoms: _454  and  _457
REMARK  184  A    between atoms: _457  and  _458
REMARK  185  A    between atoms: _463  and  _464
REMARK  186  A    between atoms: _466  and  _468
REMARK  187  A    between atoms: _468  and  _469
REMARK  188  A    between atoms: _468  and  _471
REMARK  189  A    between atoms: _471  and  _472
REMARK  190  A    between atoms: _477  and  _478
REMARK  191  A    between atoms: _480  and  _482
REMARK  192  A    between atoms: _482  and  _483
REMARK  193  A    between atoms: _482  and  _485
REMARK  194  A    between atoms: _485  and  _486
REMARK  195  A    between atoms: _489  and  _491
REMARK  196  A    between atoms: _491  and  _492
REMARK  197  A    between atoms: _491  and  _494
REMARK  198  A    between atoms: _494  and  _495
REMARK  199  A    between atoms: _505  and  _507
REMARK  200  A    between atoms: _507  and  _508
REMARK  201  A    between atoms: _511  and  _513
REMARK  202  A    between atoms: _513  and  _514
REMARK  203  A    between atoms: _517  and  _519
REMARK  204  A    between atoms: _519  and  _520
REMARK  205  A    between atoms: _519  and  _522
REMARK  206  A    between atoms: _522  and  _523
REMARK  207  A    between atoms: _523  and  _524
REMARK  208  A    between atoms: _529  and  _531
REMARK  209  A    between atoms: _531  and  _532
REMARK  210  A    between atoms: _531  and  _534
REMARK  211  A    between atoms: _534  and  _535
REMARK  212  A    between atoms: _538  and  _540
REMARK  213  A    between atoms: _540  and  _541
REMARK  214  A    between atoms: _540  and  _543
REMARK  215  A    between atoms: _543  and  _544
REMARK  216  A    between atoms: _547  and  _549
REMARK  217  A    between atoms: _549  and  _550
REMARK  218  A    between atoms: _549  and  _552
REMARK  219  A    between atoms: _552  and  _553
REMARK  220  A    between atoms: _553  and  _554
REMARK  221  A    between atoms: _554  and  _555
REMARK  222  A    between atoms: _555  and  _556
REMARK  223  A    between atoms: _560  and  _562
REMARK  224  A    between atoms: _562  and  _563
REMARK  225  A    between atoms: _562  and  _565
REMARK  226  A    between atoms: _565  and  _566
REMARK  227  A    between atoms: _571  and  _573
REMARK  228  A    between atoms: _573  and  _574
REMARK  229  A    between atoms: _573  and  _576
REMARK  230  A    between atoms: _576  and  _577
REMARK  231  A    between atoms: _577  and  _578
REMARK  232  A    between atoms: _578  and  _579
REMARK  233  A    between atoms: _579  and  _580
REMARK  234  A    between atoms: _584  and  _586
REMARK  235  A    between atoms: _586  and  _587
REMARK  236  A    between atoms: _586  and  _589
REMARK  237  A    between atoms: _589  and  _590
REMARK  238  A    between atoms: _600  and  _602
REMARK  239  A    between atoms: _602  and  _603
REMARK  240  A    between atoms: _602  and  _605
REMARK  241  A    between atoms: _605  and  _606
REMARK  242  A    between atoms: _606  and  _607
REMARK  243  A    between atoms: _610  and  _612
REMARK  244  A    between atoms: _612  and  _613
REMARK  245  A    between atoms: _616  and  _618
REMARK  246  A    between atoms: _618  and  _619
REMARK  247  A    between atoms: _622  and  _624
REMARK  248  A    between atoms: _624  and  _625
REMARK  249  A    between atoms: _624  and  _627
REMARK  250  A    between atoms: _627  and  _628
REMARK  251  A    between atoms: _633  and  _635
REMARK  252  A    between atoms: _635  and  _636
REMARK  253  A    between atoms: _635  and  _638
REMARK  254  A    between atoms: _641  and  _643
REMARK  255  A    between atoms: _643  and  _644
REMARK  256  A    between atoms: _647  and  _649
REMARK  257  A    between atoms: _649  and  _650
REMARK  258  A    between atoms: _649  and  _652
REMARK  259  A    between atoms: _652  and  _653
REMARK  260  A    between atoms: _653  and  _654
REMARK  261  A    between atoms: _659  and  _661
REMARK  262  A    between atoms: _661  and  _662
REMARK  263  A    between atoms: _661  and  _664
REMARK  264  A    between atoms: _664  and  _665
REMARK  265  A    between atoms: _668  and  _670
REMARK  266  A    between atoms: _670  and  _671
REMARK  267  A    between atoms: _670  and  _673
REMARK  268  A    between atoms: _673  and  _674
REMARK  269  A    between atoms: _674  and  _675
REMARK  270  A    between atoms: _675  and  _676
REMARK  271  A    between atoms: _685  and  _687
REMARK  272  A    between atoms: _687  and  _688
REMARK  273  A    between atoms: _687  and  _690
REMARK  274  A    between atoms: _690  and  _691
REMARK  275  A    between atoms: _696  and  _697
REMARK  276  A    between atoms: _699  and  _701
REMARK  277  A    between atoms: _701  and  _702
REMARK  278  A    between atoms: _701  and  _704
REMARK  279  A    between atoms: _704  and  _705
REMARK  280  A    between atoms: _708  and  _710
REMARK  281  A    between atoms: _710  and  _711
REMARK  282  A    between atoms: _710  and  _713
REMARK  283  A    between atoms: _713  and  _714
REMARK  284  A    between atoms: _717  and  _719
REMARK  285  A    between atoms: _719  and  _720
REMARK  286  A    between atoms: _719  and  _722
REMARK  287  A    between atoms: _722  and  _723
REMARK  288  A    between atoms: _724  and  _726
REMARK  289  A    between atoms: _726  and  _727
REMARK  290  A    between atoms: _726  and  _729
REMARK  291  A    between atoms: _732  and  _734
REMARK  292  A    between atoms: _734  and  _735
REMARK  293  A    between atoms: _734  and  _737
REMARK  294  A    between atoms: _737  and  _738
REMARK  295  A    between atoms: _738  and  _739
REMARK  296  A    between atoms: _742  and  _744
REMARK  297  A    between atoms: _744  and  _745
REMARK  298  A    between atoms: _744  and  _747
REMARK  299  A    between atoms: _747  and  _748
REMARK  300  A    between atoms: _758  and  _760
REMARK  301  A    between atoms: _760  and  _761
REMARK  302  A    between atoms: _760  and  _763
REMARK  303  A    between atoms: _763  and  _764
REMARK  304  A    between atoms: _767  and  _769
REMARK  305  A    between atoms: _769  and  _770
REMARK  306  A    between atoms: _769  and  _772
REMARK  307  A    between atoms: _772  and  _773
REMARK  308  A    between atoms: _773  and  _774
REMARK  309  A    between atoms: _774  and  _775
REMARK  310  A    between atoms: _784  and  _786
REMARK  311  A    between atoms: _786  and  _787
REMARK  312  A    between atoms: _786  and  _789
REMARK  313  A    between atoms: _789  and  _790
REMARK  314  A    between atoms: _795  and  _796
REMARK                            x       y       z     vdW  Elec       q    Type
REMARK                         _______ _______ _______ _____ _____    ______ ____
ROOT
ATOM      1  O   HOH     1      44.767  -6.994  33.504  0.00  0.00    +0.000 OA
ENDROOT
TORSDOF 0
REMARK  Name = ../refined-set-2016/3qfd/3qfd_pocket.pdb
REMARK  314 active torsions:
REMARK  status: ('A' for Active; 'I' for Inactive)
REMARK    1  A    between atoms: _1  and  _3
REMARK    2  A    between atoms: _3  and  _4
REMARK    3  A    between atoms: _3  and  _6
REMARK    4  A    between atoms: _6  and  _7
REMARK    5  A    between atoms: _7  and  _8
REMARK    6  A    between atoms: _10  and  _12
REMARK    7  A    between atoms: _12  and  _13
REMARK    8  A    between atoms: _12  and  _15
REMARK    9  A    between atoms: _15  and  _16
REMARK   10  A    between atoms: _16  and  _17
REMARK   11  A    between atoms: _17  and  _18
REMARK   12  A    between atoms: _27  and  _29
REMARK   13  A    between atoms: _29  and  _30
REMARK   14  A    between atoms: _29  and  _32
REMARK   15  A    between atoms: _32  and  _33
REMARK   16  A    between atoms: _38  and  _39
REMARK   17  A    between atoms: _41  and  _43
REMARK   18  A    between atoms: _43  and  _44
REMARK   19  A    between atoms: _43  and  _46
REMARK   20  A    between atoms: _46  and  _47
REMARK   21  A    between atoms: _53  and  _55
REMARK   22  A    between atoms: _55  and  _56
REMARK   23  A    between atoms: _55  and  _58
REMARK   24  A    between atoms: _58  and  _59
REMARK   25  A    between atoms: _65  and  _67
REMARK   26  A    between atoms: _67  and  _68
REMARK   27  A    between atoms: _71  and  _73
REMARK   28  A    between atoms: _73  and  _74
REMARK   29  A    between atoms: _73  and  _76
REMARK   30  A    between atoms: _79  and  _81
REMARK   31  A    between atoms: _81  and  _82
REMARK   32  A    between atoms: _84  and  _86
REMARK   33  A    between atoms: _86  and  _87
REMARK   34  A    between atoms: _86  and  _89
REMARK   35  A    between atoms: _92  and  _94
REMARK   36  A    between atoms: _94  and  _95
REMARK   37  A    between atoms: _94  and  _97
REMARK   38  A    between atoms: _97  and  _98
REMARK   39  A    between atoms: _104  and  _106
REMARK   40  A    between atoms: _106  and  _107
REMARK   41  A    between atoms: _106  and  _109
REMARK   42  A    between atoms: _112  and  _114
REMARK   43  A    between atoms: _114  and  _115
REMARK   44  A    between atoms: _114  and  _117
REMARK   45  A    between atoms: _117  and  _118
REMARK   46  A    between atoms: _118  and  _119
REMARK   47  A    between atoms: _121  and  _123
REMARK   48  A    between atoms: _123  and  _124
REMARK   49  A    between atoms: _123  and  _126
REMARK   50  A    between atoms: _126  and  _127
REMARK   51  A    between atoms: _130  and  _132
REMARK   52  A    between atoms: _132  and  _133
REMARK   53  A    between atoms: _132  and  _135
REMARK   54  A    between atoms: _135  and  _136
REMARK   55  A    between atoms: _136  and  _137
REMARK   56  A    between atoms: _140  and  _142
REMARK   57  A    between atoms: _142  and  _143
REMARK   58  A    between atoms: _142  and  _145
REMARK   59  A    between atoms: _145  and  _146
REMARK   60  A    between atoms: _151  and  _152
REMARK   61  A    between atoms: _154  and  _156
REMARK   62  A    between atoms: _156  and  _157
REMARK   63  A    between atoms: _159  and  _161
REMARK   64  A    between atoms: _161  and  _162
REMARK   65  A    between atoms: _161  and  _164
REMARK   66  A    between atoms: _164  and  _165
REMARK   67  A    between atoms: _165  and  _166
REMARK   68  A    between atoms: _169  and  _171
REMARK   69  A    between atoms: _171  and  _172
REMARK   70  A    between atoms: _171  and  _174
REMARK   71  A    between atoms: _174  and  _175
REMARK   72  A    between atoms: _178  and  _180
REMARK   73  A    between atoms: _180  and  _181
REMARK   74  A    between atoms: _180  and  _183
REMARK   75  A    between atoms: _183  and  _184
REMARK   76  A    between atoms: _184  and  _185
REMARK   77  A    between atoms: _185  and  _186
REMARK   78  A    between atoms: _195  and  _197
REMARK   79  A    between atoms: _197  and  _198
REMARK   80  A    between atoms: _197  and  _200
REMARK   81  A    between atoms: _200  and  _201
REMARK   82  A    between atoms: _201  and  _202
REMARK   83  A    between atoms: _202  and  _203
REMARK   84  A    between atoms: _203  and  _204
REMARK   85  A    between atoms: _208  and  _210
REMARK   86  A    between atoms: _210  and  _211
REMARK   87  A    between atoms: _210  and  _213
REMARK   88  A    between atoms: _216  and  _218
REMARK   89  A    between atoms: _218  and  _219
REMARK   90  A    between atoms: _222  and  _224
REMARK   91  A    between atoms: _224  and  _225
REMARK   92  A    between atoms: _224  and  _227
REMARK   93  A    between atoms: _227  and  _228
REMARK   94  A    between atoms: _233  and  _235
REMARK   95  A    between atoms: _235  and  _236
REMARK   96  A    between atoms: _235  and  _238
REMARK   97  A    between atoms: _238  and  _239
REMARK   98  A    between atoms: _241  and  _243
REMARK   99  A    between atoms: _243  and  _244
REMARK  100  A    between atoms: _243  and  _246
REMARK  101  A    between atoms: _246  and  _247
REMARK  102  A    between atoms: _247  and  _248
REMARK  103  A    between atoms: _253  and  _255
REMARK  104  A    between atoms: _255  and  _256
REMARK  105  A    between atoms: _255  and  _258
REMARK  106  A    between atoms: _258  and  _259
REMARK  107  A    between atoms: _262  and  _264
REMARK  108  A    between atoms: _264  and  _265
REMARK  109  A    between atoms: _264  and  _267
REMARK  110  A    between atoms: _267  and  _268
REMARK  111  A    between atoms: _273  and  _275
REMARK  112  A    between atoms: _275  and  _276
REMARK  113  A    between atoms: _275  and  _278
REMARK  114  A    between atoms: _278  and  _279
REMARK  115  A    between atoms: _279  and  _280
REMARK  116  A    between atoms: _280  and  _281
REMARK  117  A    between atoms: _290  and  _292
REMARK  118  A    between atoms: _292  and  _293
REMARK  119  A    between atoms: _292  and  _295
REMARK  120  A    between atoms: _298  and  _300
REMARK  121  A    between atoms: _300  and  _301
REMARK  122  A    between atoms: _300  and  _303
REMARK  123  A    between atoms: _303  and  _304
REMARK  124  A    between atoms: _307  and  _309
REMARK  125  A    between atoms: _309  and  _310
REMARK  126  A    between atoms: _309  and  _312
REMARK  127  A    between atoms: _312  and  _313
REMARK  128  A    between atoms: _316  and  _318
REMARK  129  A    between atoms: _318  and  _319
REMARK  130  A    between atoms: _321  and  _323
REMARK  131  A    between atoms: _323  and  _324
REMARK  132  A    between atoms: _323  and  _326
REMARK  133  A    between atoms: _326  and  _327
REMARK  134  A    between atoms: _330  and  _332
REMARK  135  A    between atoms: _332  and  _333
REMARK  136  A    between atoms: _332  and  _335
REMARK  137  A    between atoms: _335  and  _336
REMARK  138  A    between atoms: _339  and  _341
REMARK  139  A    between atoms: _341  and  _342
REMARK  140  A    between atoms: _341  and  _344
REMARK  141  A    between atoms: _344  and  _345
REMARK  142  A    between atoms: _345  and  _346
REMARK  143  A    between atoms: _346  and  _347
REMARK  144  A    between atoms: _356  and  _358
REMARK  145  A    between atoms: _358  and  _359
REMARK  146  A    between atoms: _358  and  _361
REMARK  147  A    between atoms: _361  and  _362
REMARK  148  A    between atoms: _367  and  _368
REMARK  149  A    between atoms: _370  and  _372
REMARK  150  A    between atoms: _372  and  _373
REMARK  151  A    between atoms: _372  and  _375
REMARK  152  A    between atoms: _378  and  _380
REMARK  153  A    between atoms: _380  and  _381
REMARK  154  A    between atoms: _380  and  _383
REMARK  155  A    between atoms: _383  and  _384
REMARK  156  A    between atoms: _384  and  _385
REMARK  157  A    between atoms: _385  and  _386
REMARK  158  A    between atoms: _395  and  _397
REMARK  159  A    between atoms: _397  and  _398
REMARK  160  A    between atoms: _397  and  _400
REMARK  161  A    between atoms: _400  and  _401
REMARK  162  A    between atoms: _406  and  _407
REMARK  163  A    between atoms: _409  and  _411
REMARK  164  A    between atoms: _411  and  _412
REMARK  165  A    between atoms: _414  and  _416
REMARK  166  A    between atoms: _416  and  _417
REMARK  167  A    between atoms: _416  and  _419
REMARK  168  A    between atoms: _419  and  _420
REMARK  169  A    between atoms: _420  and  _723
REMARK  170  A    between atoms: _421  and  _423
REMARK  171  A    between atoms: _423  and  _424
REMARK  172  A    between atoms: _423  and  _426
REMARK  173  A    between atoms: _426  and  _427
REMARK  174  A    between atoms: _432  and  _434
REMARK  175  A    between atoms: _434  and  _435
REMARK  176  A    between atoms: _434  and  _437
REMARK  177  A    between atoms: _437  and  _438
REMARK  178  A    between atoms: _443  and  _444
REMARK  179  A    between atoms: _446  and  _448
REMARK  180  A    between atoms: _448  and  _449
REMARK  181  A    between atoms: _452  and  _454
REMARK  182  A    between atoms: _454  and  _455
REMARK  183  A    between atoms: _454  and  _457
REMARK  184  A    between atoms: _457  and  _458
REMARK  185  A    between atoms: _463  and  _464
REMARK  186  A    between atoms: _466  and  _468
REMARK  187  A    between atoms: _468  and  _469
REMARK  188  A    between atoms: _468  and  _471
REMARK  189  A    between atoms: _471  and  _472
REMARK  190  A    between atoms: _477  and  _478
REMARK  191  A    between atoms: _480  and  _482
REMARK  192  A    between atoms: _482  and  _483
REMARK  193  A    between atoms: _482  and  _485
REMARK  194  A    between atoms: _485  and  _486
REMARK  195  A    between atoms: _489  and  _491
REMARK  196  A    between atoms: _491  and  _492
REMARK  197  A    between atoms: _491  and  _494
REMARK  198  A    between atoms: _494  and  _495
REMARK  199  A    between atoms: _505  and  _507
REMARK  200  A    between atoms: _507  and  _508
REMARK  201  A    between atoms: _511  and  _513
REMARK  202  A    between atoms: _513  and  _514
REMARK  203  A    between atoms: _517  and  _519
REMARK  204  A    between atoms: _519  and  _520
REMARK  205  A    between atoms: _519  and  _522
REMARK  206  A    between atoms: _522  and  _523
REMARK  207  A    between atoms: _523  and  _524
REMARK  208  A    between atoms: _529  and  _531
REMARK  209  A    between atoms: _531  and  _532
REMARK  210  A    between atoms: _531  and  _534
REMARK  211  A    between atoms: _534  and  _535
REMARK  212  A    between atoms: _538  and  _540
REMARK  213  A    between atoms: _540  and  _541
REMARK  214  A    between atoms: _540  and  _543
REMARK  215  A    between atoms: _543  and  _544
REMARK  216  A    between atoms: _547  and  _549
REMARK  217  A    between atoms: _549  and  _550
REMARK  218  A    between atoms: _549  and  _552
REMARK  219  A    between atoms: _552  and  _553
REMARK  220  A    between atoms: _553  and  _554
REMARK  221  A    between atoms: _554  and  _555
REMARK  222  A    between atoms: _555  and  _556
REMARK  223  A    between atoms: _560  and  _562
REMARK  224  A    between atoms: _562  and  _563
REMARK  225  A    between atoms: _562  and  _565
REMARK  226  A    between atoms: _565  and  _566
REMARK  227  A    between atoms: _571  and  _573
REMARK  228  A    between atoms: _573  and  _574
REMARK  229  A    between atoms: _573  and  _576
REMARK  230  A    between atoms: _576  and  _577
REMARK  231  A    between atoms: _577  and  _578
REMARK  232  A    between atoms: _578  and  _579
REMARK  233  A    between atoms: _579  and  _580
REMARK  234  A    between atoms: _584  and  _586
REMARK  235  A    between atoms: _586  and  _587
REMARK  236  A    between atoms: _586  and  _589
REMARK  237  A    between atoms: _589  and  _590
REMARK  238  A    between atoms: _600  and  _602
REMARK  239  A    between atoms: _602  and  _603
REMARK  240  A    between atoms: _602  and  _605
REMARK  241  A    between atoms: _605  and  _606
REMARK  242  A    between atoms: _606  and  _607
REMARK  243  A    between atoms: _610  and  _612
REMARK  244  A    between atoms: _612  and  _613
REMARK  245  A    between atoms: _616  and  _618
REMARK  246  A    between atoms: _618  and  _619
REMARK  247  A    between atoms: _622  and  _624
REMARK  248  A    between atoms: _624  and  _625
REMARK  249  A    between atoms: _624  and  _627
REMARK  250  A    between atoms: _627  and  _628
REMARK  251  A    between atoms: _633  and  _635
REMARK  252  A    between atoms: _635  and  _636
REMARK  253  A    between atoms: _635  and  _638
REMARK  254  A    between atoms: _641  and  _643
REMARK  255  A    between atoms: _643  and  _644
REMARK  256  A    between atoms: _647  and  _649
REMARK  257  A    between atoms: _649  and  _650
REMARK  258  A    between atoms: _649  and  _652
REMARK  259  A    between atoms: _652  and  _653
REMARK  260  A    between atoms: _653  and  _654
REMARK  261  A    between atoms: _659  and  _661
REMARK  262  A    between atoms: _661  and  _662
REMARK  263  A    between atoms: _661  and  _664
REMARK  264  A    between atoms: _664  and  _665
REMARK  265  A    between atoms: _668  and  _670
REMARK  266  A    between atoms: _670  and  _671
REMARK  267  A    between atoms: _670  and  _673
REMARK  268  A    between atoms: _673  and  _674
REMARK  269  A    between atoms: _674  and  _675
REMARK  270  A    between atoms: _675  and  _676
REMARK  271  A    between atoms: _685  and  _687
REMARK  272  A    between atoms: _687  and  _688
REMARK  273  A    between atoms: _687  and  _690
REMARK  274  A    between atoms: _690  and  _691
REMARK  275  A    between atoms: _696  and  _697
REMARK  276  A    between atoms: _699  and  _701
REMARK  277  A    between atoms: _701  and  _702
REMARK  278  A    between atoms: _701  and  _704
REMARK  279  A    between atoms: _704  and  _705
REMARK  280  A    between atoms: _708  and  _710
REMARK  281  A    between atoms: _710  and  _711
REMARK  282  A    between atoms: _710  and  _713
REMARK  283  A    between atoms: _713  and  _714
REMARK  284  A    between atoms: _717  and  _719
REMARK  285  A    between atoms: _719  and  _720
REMARK  286  A    between atoms: _719  and  _722
REMARK  287  A    between atoms: _722  and  _723
REMARK  288  A    between atoms: _724  and  _726
REMARK  289  A    between atoms: _726  and  _727
REMARK  290  A    between atoms: _726  and  _729
REMARK  291  A    between atoms: _732  and  _734
REMARK  292  A    between atoms: _734  and  _735
REMARK  293  A    between atoms: _734  and  _737
REMARK  294  A    between atoms: _737  and  _738
REMARK  295  A    between atoms: _738  and  _739
REMARK  296  A    between atoms: _742  and  _744
REMARK  297  A    between atoms: _744  and  _745
REMARK  298  A    between atoms: _744  and  _747
REMARK  299  A    between atoms: _747  and  _748
REMARK  300  A    between atoms: _758  and  _760
REMARK  301  A    between atoms: _760  and  _761
REMARK  302  A    between atoms: _760  and  _763
REMARK  303  A    between atoms: _763  and  _764
REMARK  304  A    between atoms: _767  and  _769
REMARK  305  A    between atoms: _769  and  _770
REMARK  306  A    between atoms: _769  and  _772
REMARK  307  A    between atoms: _772  and  _773
REMARK  308  A    between atoms: _773  and  _774
REMARK  309  A    between atoms: _774  and  _775
REMARK  310  A    between atoms: _784  and  _786
REMARK  311  A    between atoms: _786  and  _787
REMARK  312  A    between atoms: _786  and  _789
REMARK  313  A    between atoms: _789  and  _790
REMARK  314  A    between atoms: _795  and  _796
REMARK                            x       y       z     vdW  Elec       q    Type
REMARK                         _______ _______ _______ _____ _____    ______ ____
ROOT
ATOM      1  O   HOH     1      39.381  -7.981  37.088  0.00  0.00    +0.000 OA
ENDROOT
TORSDOF 0
REMARK  Name = ../refined-set-2016/3qfd/3qfd_pocket.pdb
REMARK  314 active torsions:
REMARK  status: ('A' for Active; 'I' for Inactive)
REMARK    1  A    between atoms: _1  and  _3
REMARK    2  A    between atoms: _3  and  _4
REMARK    3  A    between atoms: _3  and  _6
REMARK    4  A    between atoms: _6  and  _7
REMARK    5  A    between atoms: _7  and  _8
REMARK    6  A    between atoms: _10  and  _12
REMARK    7  A    between atoms: _12  and  _13
REMARK    8  A    between atoms: _12  and  _15
REMARK    9  A    between atoms: _15  and  _16
REMARK   10  A    between atoms: _16  and  _17
REMARK   11  A    between atoms: _17  and  _18
REMARK   12  A    between atoms: _27  and  _29
REMARK   13  A    between atoms: _29  and  _30
REMARK   14  A    between atoms: _29  and  _32
REMARK   15  A    between atoms: _32  and  _33
REMARK   16  A    between atoms: _38  and  _39
REMARK   17  A    between atoms: _41  and  _43
REMARK   18  A    between atoms: _43  and  _44
REMARK   19  A    between atoms: _43  and  _46
REMARK   20  A    between atoms: _46  and  _47
REMARK   21  A    between atoms: _53  and  _55
REMARK   22  A    between atoms: _55  and  _56
REMARK   23  A    between atoms: _55  and  _58
REMARK   24  A    between atoms: _58  and  _59
REMARK   25  A    between atoms: _65  and  _67
REMARK   26  A    between atoms: _67  and  _68
REMARK   27  A    between atoms: _71  and  _73
REMARK   28  A    between atoms: _73  and  _74
REMARK   29  A    between atoms: _73  and  _76
REMARK   30  A    between atoms: _79  and  _81
REMARK   31  A    between atoms: _81  and  _82
REMARK   32  A    between atoms: _84  and  _86
REMARK   33  A    between atoms: _86  and  _87
REMARK   34  A    between atoms: _86  and  _89
REMARK   35  A    between atoms: _92  and  _94
REMARK   36  A    between atoms: _94  and  _95
REMARK   37  A    between atoms: _94  and  _97
REMARK   38  A    between atoms: _97  and  _98
REMARK   39  A    between atoms: _104  and  _106
REMARK   40  A    between atoms: _106  and  _107
REMARK   41  A    between atoms: _106  and  _109
REMARK   42  A    between atoms: _112  and  _114
REMARK   43  A    between atoms: _114  and  _115
REMARK   44  A    between atoms: _114  and  _117
REMARK   45  A    between atoms: _117  and  _118
REMARK   46  A    between atoms: _118  and  _119
REMARK   47  A    between atoms: _121  and  _123
REMARK   48  A    between atoms: _123  and  _124
REMARK   49  A    between atoms: _123  and  _126
REMARK   50  A    between atoms: _126  and  _127
REMARK   51  A    between atoms: _130  and  _132
REMARK   52  A    between atoms: _132  and  _133
REMARK   53  A    between atoms: _132  and  _135
REMARK   54  A    between atoms: _135  and  _136
REMARK   55  A    between atoms: _136  and  _137
REMARK   56  A    between atoms: _140  and  _142
REMARK   57  A    between atoms: _142  and  _143
REMARK   58  A    between atoms: _142  and  _145
REMARK   59  A    between atoms: _145  and  _146
REMARK   60  A    between atoms: _151  and  _152
REMARK   61  A    between atoms: _154  and  _156
REMARK   62  A    between atoms: _156  and  _157
REMARK   63  A    between atoms: _159  and  _161
REMARK   64  A    between atoms: _161  and  _162
REMARK   65  A    between atoms: _161  and  _164
REMARK   66  A    between atoms: _164  and  _165
REMARK   67  A    between atoms: _165  and  _166
REMARK   68  A    between atoms: _169  and  _171
REMARK   69  A    between atoms: _171  and  _172
REMARK   70  A    between atoms: _171  and  _174
REMARK   71  A    between atoms: _174  and  _175
REMARK   72  A    between atoms: _178  and  _180
REMARK   73  A    between atoms: _180  and  _181
REMARK   74  A    between atoms: _180  and  _183
REMARK   75  A    between atoms: _183  and  _184
REMARK   76  A    between atoms: _184  and  _185
REMARK   77  A    between atoms: _185  and  _186
REMARK   78  A    between atoms: _195  and  _197
REMARK   79  A    between atoms: _197  and  _198
REMARK   80  A    between atoms: _197  and  _200
REMARK   81  A    between atoms: _200  and  _201
REMARK   82  A    between atoms: _201  and  _202
REMARK   83  A    between atoms: _202  and  _203
REMARK   84  A    between atoms: _203  and  _204
REMARK   85  A    between atoms: _208  and  _210
REMARK   86  A    between atoms: _210  and  _211
REMARK   87  A    between atoms: _210  and  _213
REMARK   88  A    between atoms: _216  and  _218
REMARK   89  A    between atoms: _218  and  _219
REMARK   90  A    between atoms: _222  and  _224
REMARK   91  A    between atoms: _224  and  _225
REMARK   92  A    between atoms: _224  and  _227
REMARK   93  A    between atoms: _227  and  _228
REMARK   94  A    between atoms: _233  and  _235
REMARK   95  A    between atoms: _235  and  _236
REMARK   96  A    between atoms: _235  and  _238
REMARK   97  A    between atoms: _238  and  _239
REMARK   98  A    between atoms: _241  and  _243
REMARK   99  A    between atoms: _243  and  _244
REMARK  100  A    between atoms: _243  and  _246
REMARK  101  A    between atoms: _246  and  _247
REMARK  102  A    between atoms: _247  and  _248
REMARK  103  A    between atoms: _253  and  _255
REMARK  104  A    between atoms: _255  and  _256
REMARK  105  A    between atoms: _255  and  _258
REMARK  106  A    between atoms: _258  and  _259
REMARK  107  A    between atoms: _262  and  _264
REMARK  108  A    between atoms: _264  and  _265
REMARK  109  A    between atoms: _264  and  _267
REMARK  110  A    between atoms: _267  and  _268
REMARK  111  A    between atoms: _273  and  _275
REMARK  112  A    between atoms: _275  and  _276
REMARK  113  A    between atoms: _275  and  _278
REMARK  114  A    between atoms: _278  and  _279
REMARK  115  A    between atoms: _279  and  _280
REMARK  116  A    between atoms: _280  and  _281
REMARK  117  A    between atoms: _290  and  _292
REMARK  118  A    between atoms: _292  and  _293
REMARK  119  A    between atoms: _292  and  _295
REMARK  120  A    between atoms: _298  and  _300
REMARK  121  A    between atoms: _300  and  _301
REMARK  122  A    between atoms: _300  and  _303
REMARK  123  A    between atoms: _303  and  _304
REMARK  124  A    between atoms: _307  and  _309
REMARK  125  A    between atoms: _309  and  _310
REMARK  126  A    between atoms: _309  and  _312
REMARK  127  A    between atoms: _312  and  _313
REMARK  128  A    between atoms: _316  and  _318
REMARK  129  A    between atoms: _318  and  _319
REMARK  130  A    between atoms: _321  and  _323
REMARK  131  A    between atoms: _323  and  _324
REMARK  132  A    between atoms: _323  and  _326
REMARK  133  A    between atoms: _326  and  _327
REMARK  134  A    between atoms: _330  and  _332
REMARK  135  A    between atoms: _332  and  _333
REMARK  136  A    between atoms: _332  and  _335
REMARK  137  A    between atoms: _335  and  _336
REMARK  138  A    between atoms: _339  and  _341
REMARK  139  A    between atoms: _341  and  _342
REMARK  140  A    between atoms: _341  and  _344
REMARK  141  A    between atoms: _344  and  _345
REMARK  142  A    between atoms: _345  and  _346
REMARK  143  A    between atoms: _346  and  _347
REMARK  144  A    between atoms: _356  and  _358
REMARK  145  A    between atoms: _358  and  _359
REMARK  146  A    between atoms: _358  and  _361
REMARK  147  A    between atoms: _361  and  _362
REMARK  148  A    between atoms: _367  and  _368
REMARK  149  A    between atoms: _370  and  _372
REMARK  150  A    between atoms: _372  and  _373
REMARK  151  A    between atoms: _372  and  _375
REMARK  152  A    between atoms: _378  and  _380
REMARK  153  A    between atoms: _380  and  _381
REMARK  154  A    between atoms: _380  and  _383
REMARK  155  A    between atoms: _383  and  _384
REMARK  156  A    between atoms: _384  and  _385
REMARK  157  A    between atoms: _385  and  _386
REMARK  158  A    between atoms: _395  and  _397
REMARK  159  A    between atoms: _397  and  _398
REMARK  160  A    between atoms: _397  and  _400
REMARK  161  A    between atoms: _400  and  _401
REMARK  162  A    between atoms: _406  and  _407
REMARK  163  A    between atoms: _409  and  _411
REMARK  164  A    between atoms: _411  and  _412
REMARK  165  A    between atoms: _414  and  _416
REMARK  166  A    between atoms: _416  and  _417
REMARK  167  A    between atoms: _416  and  _419
REMARK  168  A    between atoms: _419  and  _420
REMARK  169  A    between atoms: _420  and  _723
REMARK  170  A    between atoms: _421  and  _423
REMARK  171  A    between atoms: _423  and  _424
REMARK  172  A    between atoms: _423  and  _426
REMARK  173  A    between atoms: _426  and  _427
REMARK  174  A    between atoms: _432  and  _434
REMARK  175  A    between atoms: _434  and  _435
REMARK  176  A    between atoms: _434  and  _437
REMARK  177  A    between atoms: _437  and  _438
REMARK  178  A    between atoms: _443  and  _444
REMARK  179  A    between atoms: _446  and  _448
REMARK  180  A    between atoms: _448  and  _449
REMARK  181  A    between atoms: _452  and  _454
REMARK  182  A    between atoms: _454  and  _455
REMARK  183  A    between atoms: _454  and  _457
REMARK  184  A    between atoms: _457  and  _458
REMARK  185  A    between atoms: _463  and  _464
REMARK  186  A    between atoms: _466  and  _468
REMARK  187  A    between atoms: _468  and  _469
REMARK  188  A    between atoms: _468  and  _471
REMARK  189  A    between atoms: _471  and  _472
REMARK  190  A    between atoms: _477  and  _478
REMARK  191  A    between atoms: _480  and  _482
REMARK  192  A    between atoms: _482  and  _483
REMARK  193  A    between atoms: _482  and  _485
REMARK  194  A    between atoms: _485  and  _486
REMARK  195  A    between atoms: _489  and  _491
REMARK  196  A    between atoms: _491  and  _492
REMARK  197  A    between atoms: _491  and  _494
REMARK  198  A    between atoms: _494  and  _495
REMARK  199  A    between atoms: _505  and  _507
REMARK  200  A    between atoms: _507  and  _508
REMARK  201  A    between atoms: _511  and  _513
REMARK  202  A    between atoms: _513  and  _514
REMARK  203  A    between atoms: _517  and  _519
REMARK  204  A    between atoms: _519  and  _520
REMARK  205  A    between atoms: _519  and  _522
REMARK  206  A    between atoms: _522  and  _523
REMARK  207  A    between atoms: _523  and  _524
REMARK  208  A    between atoms: _529  and  _531
REMARK  209  A    between atoms: _531  and  _532
REMARK  210  A    between atoms: _531  and  _534
REMARK  211  A    between atoms: _534  and  _535
REMARK  212  A    between atoms: _538  and  _540
REMARK  213  A    between atoms: _540  and  _541
REMARK  214  A    between atoms: _540  and  _543
REMARK  215  A    between atoms: _543  and  _544
REMARK  216  A    between atoms: _547  and  _549
REMARK  217  A    between atoms: _549  and  _550
REMARK  218  A    between atoms: _549  and  _552
REMARK  219  A    between atoms: _552  and  _553
REMARK  220  A    between atoms: _553  and  _554
REMARK  221  A    between atoms: _554  and  _555
REMARK  222  A    between atoms: _555  and  _556
REMARK  223  A    between atoms: _560  and  _562
REMARK  224  A    between atoms: _562  and  _563
REMARK  225  A    between atoms: _562  and  _565
REMARK  226  A    between atoms: _565  and  _566
REMARK  227  A    between atoms: _571  and  _573
REMARK  228  A    between atoms: _573  and  _574
REMARK  229  A    between atoms: _573  and  _576
REMARK  230  A    between atoms: _576  and  _577
REMARK  231  A    between atoms: _577  and  _578
REMARK  232  A    between atoms: _578  and  _579
REMARK  233  A    between atoms: _579  and  _580
REMARK  234  A    between atoms: _584  and  _586
REMARK  235  A    between atoms: _586  and  _587
REMARK  236  A    between atoms: _586  and  _589
REMARK  237  A    between atoms: _589  and  _590
REMARK  238  A    between atoms: _600  and  _602
REMARK  239  A    between atoms: _602  and  _603
REMARK  240  A    between atoms: _602  and  _605
REMARK  241  A    between atoms: _605  and  _606
REMARK  242  A    between atoms: _606  and  _607
REMARK  243  A    between atoms: _610  and  _612
REMARK  244  A    between atoms: _612  and  _613
REMARK  245  A    between atoms: _616  and  _618
REMARK  246  A    between atoms: _618  and  _619
REMARK  247  A    between atoms: _622  and  _624
REMARK  248  A    between atoms: _624  and  _625
REMARK  249  A    between atoms: _624  and  _627
REMARK  250  A    between atoms: _627  and  _628
REMARK  251  A    between atoms: _633  and  _635
REMARK  252  A    between atoms: _635  and  _636
REMARK  253  A    between atoms: _635  and  _638
REMARK  254  A    between atoms: _641  and  _643
REMARK  255  A    between atoms: _643  and  _644
REMARK  256  A    between atoms: _647  and  _649
REMARK  257  A    between atoms: _649  and  _650
REMARK  258  A    between atoms: _649  and  _652
REMARK  259  A    between atoms: _652  and  _653
REMARK  260  A    between atoms: _653  and  _654
REMARK  261  A    between atoms: _659  and  _661
REMARK  262  A    between atoms: _661  and  _662
REMARK  263  A    between atoms: _661  and  _664
REMARK  264  A    between atoms: _664  and  _665
REMARK  265  A    between atoms: _668  and  _670
REMARK  266  A    between atoms: _670  and  _671
REMARK  267  A    between atoms: _670  and  _673
REMARK  268  A    between atoms: _673  and  _674
REMARK  269  A    between atoms: _674  and  _675
REMARK  270  A    between atoms: _675  and  _676
REMARK  271  A    between atoms: _685  and  _687
REMARK  272  A    between atoms: _687  and  _688
REMARK  273  A    between atoms: _687  and  _690
REMARK  274  A    between atoms: _690  and  _691
REMARK  275  A    between atoms: _696  and  _697
REMARK  276  A    between atoms: _699  and  _701
REMARK  277  A    between atoms: _701  and  _702
REMARK  278  A    between atoms: _701  and  _704
REMARK  279  A    between atoms: _704  and  _705
REMARK  280  A    between atoms: _708  and  _710
REMARK  281  A    between atoms: _710  and  _711
REMARK  282  A    between atoms: _710  and  _713
REMARK  283  A    between atoms: _713  and  _714
REMARK  284  A    between atoms: _717  and  _719
REMARK  285  A    between atoms: _719  and  _720
REMARK  286  A    between atoms: _719  and  _722
REMARK  287  A    between atoms: _722  and  _723
REMARK  288  A    between atoms: _724  and  _726
REMARK  289  A    between atoms: _726  and  _727
REMARK  290  A    between atoms: _726  and  _729
REMARK  291  A    between atoms: _732  and  _734
REMARK  292  A    between atoms: _734  and  _735
REMARK  293  A    between atoms: _734  and  _737
REMARK  294  A    between atoms: _737  and  _738
REMARK  295  A    between atoms: _738  and  _739
REMARK  296  A    between atoms: _742  and  _744
REMARK  297  A    between atoms: _744  and  _745
REMARK  298  A    between atoms: _744  and  _747
REMARK  299  A    between atoms: _747  and  _748
REMARK  300  A    between atoms: _758  and  _760
REMARK  301  A    between atoms: _760  and  _761
REMARK  302  A    between atoms: _760  and  _763
REMARK  303  A    between atoms: _763  and  _764
REMARK  304  A    between atoms: _767  and  _769
REMARK  305  A    between atoms: _769  and  _770
REMARK  306  A    between atoms: _769  and  _772
REMARK  307  A    between atoms: _772  and  _773
REMARK  308  A    between atoms: _773  and  _774
REMARK  309  A    between atoms: _774  and  _775
REMARK  310  A    between atoms: _784  and  _786
REMARK  311  A    between atoms: _786  and  _787
REMARK  312  A    between atoms: _786  and  _789
REMARK  313  A    between atoms: _789  and  _790
REMARK  314  A    between atoms: _795  and  _796
REMARK                            x       y       z     vdW  Elec       q    Type
REMARK                         _______ _______ _______ _____ _____    ______ ____
ROOT
ATOM      1  O   HOH     1      37.073  -6.309  39.799  0.00  0.00    +0.000 OA
ENDROOT
TORSDOF 0
REMARK  Name = ../refined-set-2016/3qfd/3qfd_pocket.pdb
REMARK  314 active torsions:
REMARK  status: ('A' for Active; 'I' for Inactive)
REMARK    1  A    between atoms: _1  and  _3
REMARK    2  A    between atoms: _3  and  _4
REMARK    3  A    between atoms: _3  and  _6
REMARK    4  A    between atoms: _6  and  _7
REMARK    5  A    between atoms: _7  and  _8
REMARK    6  A    between atoms: _10  and  _12
REMARK    7  A    between atoms: _12  and  _13
REMARK    8  A    between atoms: _12  and  _15
REMARK    9  A    between atoms: _15  and  _16
REMARK   10  A    between atoms: _16  and  _17
REMARK   11  A    between atoms: _17  and  _18
REMARK   12  A    between atoms: _27  and  _29
REMARK   13  A    between atoms: _29  and  _30
REMARK   14  A    between atoms: _29  and  _32
REMARK   15  A    between atoms: _32  and  _33
REMARK   16  A    between atoms: _38  and  _39
REMARK   17  A    between atoms: _41  and  _43
REMARK   18  A    between atoms: _43  and  _44
REMARK   19  A    between atoms: _43  and  _46
REMARK   20  A    between atoms: _46  and  _47
REMARK   21  A    between atoms: _53  and  _55
REMARK   22  A    between atoms: _55  and  _56
REMARK   23  A    between atoms: _55  and  _58
REMARK   24  A    between atoms: _58  and  _59
REMARK   25  A    between atoms: _65  and  _67
REMARK   26  A    between atoms: _67  and  _68
REMARK   27  A    between atoms: _71  and  _73
REMARK   28  A    between atoms: _73  and  _74
REMARK   29  A    between atoms: _73  and  _76
REMARK   30  A    between atoms: _79  and  _81
REMARK   31  A    between atoms: _81  and  _82
REMARK   32  A    between atoms: _84  and  _86
REMARK   33  A    between atoms: _86  and  _87
REMARK   34  A    between atoms: _86  and  _89
REMARK   35  A    between atoms: _92  and  _94
REMARK   36  A    between atoms: _94  and  _95
REMARK   37  A    between atoms: _94  and  _97
REMARK   38  A    between atoms: _97  and  _98
REMARK   39  A    between atoms: _104  and  _106
REMARK   40  A    between atoms: _106  and  _107
REMARK   41  A    between atoms: _106  and  _109
REMARK   42  A    between atoms: _112  and  _114
REMARK   43  A    between atoms: _114  and  _115
REMARK   44  A    between atoms: _114  and  _117
REMARK   45  A    between atoms: _117  and  _118
REMARK   46  A    between atoms: _118  and  _119
REMARK   47  A    between atoms: _121  and  _123
REMARK   48  A    between atoms: _123  and  _124
REMARK   49  A    between atoms: _123  and  _126
REMARK   50  A    between atoms: _126  and  _127
REMARK   51  A    between atoms: _130  and  _132
REMARK   52  A    between atoms: _132  and  _133
REMARK   53  A    between atoms: _132  and  _135
REMARK   54  A    between atoms: _135  and  _136
REMARK   55  A    between atoms: _136  and  _137
REMARK   56  A    between atoms: _140  and  _142
REMARK   57  A    between atoms: _142  and  _143
REMARK   58  A    between atoms: _142  and  _145
REMARK   59  A    between atoms: _145  and  _146
REMARK   60  A    between atoms: _151  and  _152
REMARK   61  A    between atoms: _154  and  _156
REMARK   62  A    between atoms: _156  and  _157
REMARK   63  A    between atoms: _159  and  _161
REMARK   64  A    between atoms: _161  and  _162
REMARK   65  A    between atoms: _161  and  _164
REMARK   66  A    between atoms: _164  and  _165
REMARK   67  A    between atoms: _165  and  _166
REMARK   68  A    between atoms: _169  and  _171
REMARK   69  A    between atoms: _171  and  _172
REMARK   70  A    between atoms: _171  and  _174
REMARK   71  A    between atoms: _174  and  _175
REMARK   72  A    between atoms: _178  and  _180
REMARK   73  A    between atoms: _180  and  _181
REMARK   74  A    between atoms: _180  and  _183
REMARK   75  A    between atoms: _183  and  _184
REMARK   76  A    between atoms: _184  and  _185
REMARK   77  A    between atoms: _185  and  _186
REMARK   78  A    between atoms: _195  and  _197
REMARK   79  A    between atoms: _197  and  _198
REMARK   80  A    between atoms: _197  and  _200
REMARK   81  A    between atoms: _200  and  _201
REMARK   82  A    between atoms: _201  and  _202
REMARK   83  A    between atoms: _202  and  _203
REMARK   84  A    between atoms: _203  and  _204
REMARK   85  A    between atoms: _208  and  _210
REMARK   86  A    between atoms: _210  and  _211
REMARK   87  A    between atoms: _210  and  _213
REMARK   88  A    between atoms: _216  and  _218
REMARK   89  A    between atoms: _218  and  _219
REMARK   90  A    between atoms: _222  and  _224
REMARK   91  A    between atoms: _224  and  _225
REMARK   92  A    between atoms: _224  and  _227
REMARK   93  A    between atoms: _227  and  _228
REMARK   94  A    between atoms: _233  and  _235
REMARK   95  A    between atoms: _235  and  _236
REMARK   96  A    between atoms: _235  and  _238
REMARK   97  A    between atoms: _238  and  _239
REMARK   98  A    between atoms: _241  and  _243
REMARK   99  A    between atoms: _243  and  _244
REMARK  100  A    between atoms: _243  and  _246
REMARK  101  A    between atoms: _246  and  _247
REMARK  102  A    between atoms: _247  and  _248
REMARK  103  A    between atoms: _253  and  _255
REMARK  104  A    between atoms: _255  and  _256
REMARK  105  A    between atoms: _255  and  _258
REMARK  106  A    between atoms: _258  and  _259
REMARK  107  A    between atoms: _262  and  _264
REMARK  108  A    between atoms: _264  and  _265
REMARK  109  A    between atoms: _264  and  _267
REMARK  110  A    between atoms: _267  and  _268
REMARK  111  A    between atoms: _273  and  _275
REMARK  112  A    between atoms: _275  and  _276
REMARK  113  A    between atoms: _275  and  _278
REMARK  114  A    between atoms: _278  and  _279
REMARK  115  A    between atoms: _279  and  _280
REMARK  116  A    between atoms: _280  and  _281
REMARK  117  A    between atoms: _290  and  _292
REMARK  118  A    between atoms: _292  and  _293
REMARK  119  A    between atoms: _292  and  _295
REMARK  120  A    between atoms: _298  and  _300
REMARK  121  A    between atoms: _300  and  _301
REMARK  122  A    between atoms: _300  and  _303
REMARK  123  A    between atoms: _303  and  _304
REMARK  124  A    between atoms: _307  and  _309
REMARK  125  A    between atoms: _309  and  _310
REMARK  126  A    between atoms: _309  and  _312
REMARK  127  A    between atoms: _312  and  _313
REMARK  128  A    between atoms: _316  and  _318
REMARK  129  A    between atoms: _318  and  _319
REMARK  130  A    between atoms: _321  and  _323
REMARK  131  A    between atoms: _323  and  _324
REMARK  132  A    between atoms: _323  and  _326
REMARK  133  A    between atoms: _326  and  _327
REMARK  134  A    between atoms: _330  and  _332
REMARK  135  A    between atoms: _332  and  _333
REMARK  136  A    between atoms: _332  and  _335
REMARK  137  A    between atoms: _335  and  _336
REMARK  138  A    between atoms: _339  and  _341
REMARK  139  A    between atoms: _341  and  _342
REMARK  140  A    between atoms: _341  and  _344
REMARK  141  A    between atoms: _344  and  _345
REMARK  142  A    between atoms: _345  and  _346
REMARK  143  A    between atoms: _346  and  _347
REMARK  144  A    between atoms: _356  and  _358
REMARK  145  A    between atoms: _358  and  _359
REMARK  146  A    between atoms: _358  and  _361
REMARK  147  A    between atoms: _361  and  _362
REMARK  148  A    between atoms: _367  and  _368
REMARK  149  A    between atoms: _370  and  _372
REMARK  150  A    between atoms: _372  and  _373
REMARK  151  A    between atoms: _372  and  _375
REMARK  152  A    between atoms: _378  and  _380
REMARK  153  A    between atoms: _380  and  _381
REMARK  154  A    between atoms: _380  and  _383
REMARK  155  A    between atoms: _383  and  _384
REMARK  156  A    between atoms: _384  and  _385
REMARK  157  A    between atoms: _385  and  _386
REMARK  158  A    between atoms: _395  and  _397
REMARK  159  A    between atoms: _397  and  _398
REMARK  160  A    between atoms: _397  and  _400
REMARK  161  A    between atoms: _400  and  _401
REMARK  162  A    between atoms: _406  and  _407
REMARK  163  A    between atoms: _409  and  _411
REMARK  164  A    between atoms: _411  and  _412
REMARK  165  A    between atoms: _414  and  _416
REMARK  166  A    between atoms: _416  and  _417
REMARK  167  A    between atoms: _416  and  _419
REMARK  168  A    between atoms: _419  and  _420
REMARK  169  A    between atoms: _420  and  _723
REMARK  170  A    between atoms: _421  and  _423
REMARK  171  A    between atoms: _423  and  _424
REMARK  172  A    between atoms: _423  and  _426
REMARK  173  A    between atoms: _426  and  _427
REMARK  174  A    between atoms: _432  and  _434
REMARK  175  A    between atoms: _434  and  _435
REMARK  176  A    between atoms: _434  and  _437
REMARK  177  A    between atoms: _437  and  _438
REMARK  178  A    between atoms: _443  and  _444
REMARK  179  A    between atoms: _446  and  _448
REMARK  180  A    between atoms: _448  and  _449
REMARK  181  A    between atoms: _452  and  _454
REMARK  182  A    between atoms: _454  and  _455
REMARK  183  A    between atoms: _454  and  _457
REMARK  184  A    between atoms: _457  and  _458
REMARK  185  A    between atoms: _463  and  _464
REMARK  186  A    between atoms: _466  and  _468
REMARK  187  A    between atoms: _468  and  _469
REMARK  188  A    between atoms: _468  and  _471
REMARK  189  A    between atoms: _471  and  _472
REMARK  190  A    between atoms: _477  and  _478
REMARK  191  A    between atoms: _480  and  _482
REMARK  192  A    between atoms: _482  and  _483
REMARK  193  A    between atoms: _482  and  _485
REMARK  194  A    between atoms: _485  and  _486
REMARK  195  A    between atoms: _489  and  _491
REMARK  196  A    between atoms: _491  and  _492
REMARK  197  A    between atoms: _491  and  _494
REMARK  198  A    between atoms: _494  and  _495
REMARK  199  A    between atoms: _505  and  _507
REMARK  200  A    between atoms: _507  and  _508
REMARK  201  A    between atoms: _511  and  _513
REMARK  202  A    between atoms: _513  and  _514
REMARK  203  A    between atoms: _517  and  _519
REMARK  204  A    between atoms: _519  and  _520
REMARK  205  A    between atoms: _519  and  _522
REMARK  206  A    between atoms: _522  and  _523
REMARK  207  A    between atoms: _523  and  _524
REMARK  208  A    between atoms: _529  and  _531
REMARK  209  A    between atoms: _531  and  _532
REMARK  210  A    between atoms: _531  and  _534
REMARK  211  A    between atoms: _534  and  _535
REMARK  212  A    between atoms: _538  and  _540
REMARK  213  A    between atoms: _540  and  _541
REMARK  214  A    between atoms: _540  and  _543
REMARK  215  A    between atoms: _543  and  _544
REMARK  216  A    between atoms: _547  and  _549
REMARK  217  A    between atoms: _549  and  _550
REMARK  218  A    between atoms: _549  and  _552
REMARK  219  A    between atoms: _552  and  _553
REMARK  220  A    between atoms: _553  and  _554
REMARK  221  A    between atoms: _554  and  _555
REMARK  222  A    between atoms: _555  and  _556
REMARK  223  A    between atoms: _560  and  _562
REMARK  224  A    between atoms: _562  and  _563
REMARK  225  A    between atoms: _562  and  _565
REMARK  226  A    between atoms: _565  and  _566
REMARK  227  A    between atoms: _571  and  _573
REMARK  228  A    between atoms: _573  and  _574
REMARK  229  A    between atoms: _573  and  _576
REMARK  230  A    between atoms: _576  and  _577
REMARK  231  A    between atoms: _577  and  _578
REMARK  232  A    between atoms: _578  and  _579
REMARK  233  A    between atoms: _579  and  _580
REMARK  234  A    between atoms: _584  and  _586
REMARK  235  A    between atoms: _586  and  _587
REMARK  236  A    between atoms: _586  and  _589
REMARK  237  A    between atoms: _589  and  _590
REMARK  238  A    between atoms: _600  and  _602
REMARK  239  A    between atoms: _602  and  _603
REMARK  240  A    between atoms: _602  and  _605
REMARK  241  A    between atoms: _605  and  _606
REMARK  242  A    between atoms: _606  and  _607
REMARK  243  A    between atoms: _610  and  _612
REMARK  244  A    between atoms: _612  and  _613
REMARK  245  A    between atoms: _616  and  _618
REMARK  246  A    between atoms: _618  and  _619
REMARK  247  A    between atoms: _622  and  _624
REMARK  248  A    between atoms: _624  and  _625
REMARK  249  A    between atoms: _624  and  _627
REMARK  250  A    between atoms: _627  and  _628
REMARK  251  A    between atoms: _633  and  _635
REMARK  252  A    between atoms: _635  and  _636
REMARK  253  A    between atoms: _635  and  _638
REMARK  254  A    between atoms: _641  and  _643
REMARK  255  A    between atoms: _643  and  _644
REMARK  256  A    between atoms: _647  and  _649
REMARK  257  A    between atoms: _649  and  _650
REMARK  258  A    between atoms: _649  and  _652
REMARK  259  A    between atoms: _652  and  _653
REMARK  260  A    between atoms: _653  and  _654
REMARK  261  A    between atoms: _659  and  _661
REMARK  262  A    between atoms: _661  and  _662
REMARK  263  A    between atoms: _661  and  _664
REMARK  264  A    between atoms: _664  and  _665
REMARK  265  A    between atoms: _668  and  _670
REMARK  266  A    between atoms: _670  and  _671
REMARK  267  A    between atoms: _670  and  _673
REMARK  268  A    between atoms: _673  and  _674
REMARK  269  A    between atoms: _674  and  _675
REMARK  270  A    between atoms: _675  and  _676
REMARK  271  A    between atoms: _685  and  _687
REMARK  272  A    between atoms: _687  and  _688
REMARK  273  A    between atoms: _687  and  _690
REMARK  274  A    between atoms: _690  and  _691
REMARK  275  A    between atoms: _696  and  _697
REMARK  276  A    between atoms: _699  and  _701
REMARK  277  A    between atoms: _701  and  _702
REMARK  278  A    between atoms: _701  and  _704
REMARK  279  A    between atoms: _704  and  _705
REMARK  280  A    between atoms: _708  and  _710
REMARK  281  A    between atoms: _710  and  _711
REMARK  282  A    between atoms: _710  and  _713
REMARK  283  A    between atoms: _713  and  _714
REMARK  284  A    between atoms: _717  and  _719
REMARK  285  A    between atoms: _719  and  _720
REMARK  286  A    between atoms: _719  and  _722
REMARK  287  A    between atoms: _722  and  _723
REMARK  288  A    between atoms: _724  and  _726
REMARK  289  A    between atoms: _726  and  _727
REMARK  290  A    between atoms: _726  and  _729
REMARK  291  A    between atoms: _732  and  _734
REMARK  292  A    between atoms: _734  and  _735
REMARK  293  A    between atoms: _734  and  _737
REMARK  294  A    between atoms: _737  and  _738
REMARK  295  A    between atoms: _738  and  _739
REMARK  296  A    between atoms: _742  and  _744
REMARK  297  A    between atoms: _744  and  _745
REMARK  298  A    between atoms: _744  and  _747
REMARK  299  A    between atoms: _747  and  _748
REMARK  300  A    between atoms: _758  and  _760
REMARK  301  A    between atoms: _760  and  _761
REMARK  302  A    between atoms: _760  and  _763
REMARK  303  A    between atoms: _763  and  _764
REMARK  304  A    between atoms: _767  and  _769
REMARK  305  A    between atoms: _769  and  _770
REMARK  306  A    between atoms: _769  and  _772
REMARK  307  A    between atoms: _772  and  _773
REMARK  308  A    between atoms: _773  and  _774
REMARK  309  A    between atoms: _774  and  _775
REMARK  310  A    between atoms: _784  and  _786
REMARK  311  A    between atoms: _786  and  _787
REMARK  312  A    between atoms: _786  and  _789
REMARK  313  A    between atoms: _789  and  _790
REMARK  314  A    between atoms: _795  and  _796
REMARK                            x       y       z     vdW  Elec       q    Type
REMARK                         _______ _______ _______ _____ _____    ______ ____
ROOT
ATOM      1  O   HOH     1      39.167   8.255  30.535  0.00  0.00    +0.000 OA
ENDROOT
TORSDOF 0
REMARK  Name = ../refined-set-2016/3qfd/3qfd_pocket.pdb
REMARK  314 active torsions:
REMARK  status: ('A' for Active; 'I' for Inactive)
REMARK    1  A    between atoms: _1  and  _3
REMARK    2  A    between atoms: _3  and  _4
REMARK    3  A    between atoms: _3  and  _6
REMARK    4  A    between atoms: _6  and  _7
REMARK    5  A    between atoms: _7  and  _8
REMARK    6  A    between atoms: _10  and  _12
REMARK    7  A    between atoms: _12  and  _13
REMARK    8  A    between atoms: _12  and  _15
REMARK    9  A    between atoms: _15  and  _16
REMARK   10  A    between atoms: _16  and  _17
REMARK   11  A    between atoms: _17  and  _18
REMARK   12  A    between atoms: _27  and  _29
REMARK   13  A    between atoms: _29  and  _30
REMARK   14  A    between atoms: _29  and  _32
REMARK   15  A    between atoms: _32  and  _33
REMARK   16  A    between atoms: _38  and  _39
REMARK   17  A    between atoms: _41  and  _43
REMARK   18  A    between atoms: _43  and  _44
REMARK   19  A    between atoms: _43  and  _46
REMARK   20  A    between atoms: _46  and  _47
REMARK   21  A    between atoms: _53  and  _55
REMARK   22  A    between atoms: _55  and  _56
REMARK   23  A    between atoms: _55  and  _58
REMARK   24  A    between atoms: _58  and  _59
REMARK   25  A    between atoms: _65  and  _67
REMARK   26  A    between atoms: _67  and  _68
REMARK   27  A    between atoms: _71  and  _73
REMARK   28  A    between atoms: _73  and  _74
REMARK   29  A    between atoms: _73  and  _76
REMARK   30  A    between atoms: _79  and  _81
REMARK   31  A    between atoms: _81  and  _82
REMARK   32  A    between atoms: _84  and  _86
REMARK   33  A    between atoms: _86  and  _87
REMARK   34  A    between atoms: _86  and  _89
REMARK   35  A    between atoms: _92  and  _94
REMARK   36  A    between atoms: _94  and  _95
REMARK   37  A    between atoms: _94  and  _97
REMARK   38  A    between atoms: _97  and  _98
REMARK   39  A    between atoms: _104  and  _106
REMARK   40  A    between atoms: _106  and  _107
REMARK   41  A    between atoms: _106  and  _109
REMARK   42  A    between atoms: _112  and  _114
REMARK   43  A    between atoms: _114  and  _115
REMARK   44  A    between atoms: _114  and  _117
REMARK   45  A    between atoms: _117  and  _118
REMARK   46  A    between atoms: _118  and  _119
REMARK   47  A    between atoms: _121  and  _123
REMARK   48  A    between atoms: _123  and  _124
REMARK   49  A    between atoms: _123  and  _126
REMARK   50  A    between atoms: _126  and  _127
REMARK   51  A    between atoms: _130  and  _132
REMARK   52  A    between atoms: _132  and  _133
REMARK   53  A    between atoms: _132  and  _135
REMARK   54  A    between atoms: _135  and  _136
REMARK   55  A    between atoms: _136  and  _137
REMARK   56  A    between atoms: _140  and  _142
REMARK   57  A    between atoms: _142  and  _143
REMARK   58  A    between atoms: _142  and  _145
REMARK   59  A    between atoms: _145  and  _146
REMARK   60  A    between atoms: _151  and  _152
REMARK   61  A    between atoms: _154  and  _156
REMARK   62  A    between atoms: _156  and  _157
REMARK   63  A    between atoms: _159  and  _161
REMARK   64  A    between atoms: _161  and  _162
REMARK   65  A    between atoms: _161  and  _164
REMARK   66  A    between atoms: _164  and  _165
REMARK   67  A    between atoms: _165  and  _166
REMARK   68  A    between atoms: _169  and  _171
REMARK   69  A    between atoms: _171  and  _172
REMARK   70  A    between atoms: _171  and  _174
REMARK   71  A    between atoms: _174  and  _175
REMARK   72  A    between atoms: _178  and  _180
REMARK   73  A    between atoms: _180  and  _181
REMARK   74  A    between atoms: _180  and  _183
REMARK   75  A    between atoms: _183  and  _184
REMARK   76  A    between atoms: _184  and  _185
REMARK   77  A    between atoms: _185  and  _186
REMARK   78  A    between atoms: _195  and  _197
REMARK   79  A    between atoms: _197  and  _198
REMARK   80  A    between atoms: _197  and  _200
REMARK   81  A    between atoms: _200  and  _201
REMARK   82  A    between atoms: _201  and  _202
REMARK   83  A    between atoms: _202  and  _203
REMARK   84  A    between atoms: _203  and  _204
REMARK   85  A    between atoms: _208  and  _210
REMARK   86  A    between atoms: _210  and  _211
REMARK   87  A    between atoms: _210  and  _213
REMARK   88  A    between atoms: _216  and  _218
REMARK   89  A    between atoms: _218  and  _219
REMARK   90  A    between atoms: _222  and  _224
REMARK   91  A    between atoms: _224  and  _225
REMARK   92  A    between atoms: _224  and  _227
REMARK   93  A    between atoms: _227  and  _228
REMARK   94  A    between atoms: _233  and  _235
REMARK   95  A    between atoms: _235  and  _236
REMARK   96  A    between atoms: _235  and  _238
REMARK   97  A    between atoms: _238  and  _239
REMARK   98  A    between atoms: _241  and  _243
REMARK   99  A    between atoms: _243  and  _244
REMARK  100  A    between atoms: _243  and  _246
REMARK  101  A    between atoms: _246  and  _247
REMARK  102  A    between atoms: _247  and  _248
REMARK  103  A    between atoms: _253  and  _255
REMARK  104  A    between atoms: _255  and  _256
REMARK  105  A    between atoms: _255  and  _258
REMARK  106  A    between atoms: _258  and  _259
REMARK  107  A    between atoms: _262  and  _264
REMARK  108  A    between atoms: _264  and  _265
REMARK  109  A    between atoms: _264  and  _267
REMARK  110  A    between atoms: _267  and  _268
REMARK  111  A    between atoms: _273  and  _275
REMARK  112  A    between atoms: _275  and  _276
REMARK  113  A    between atoms: _275  and  _278
REMARK  114  A    between atoms: _278  and  _279
REMARK  115  A    between atoms: _279  and  _280
REMARK  116  A    between atoms: _280  and  _281
REMARK  117  A    between atoms: _290  and  _292
REMARK  118  A    between atoms: _292  and  _293
REMARK  119  A    between atoms: _292  and  _295
REMARK  120  A    between atoms: _298  and  _300
REMARK  121  A    between atoms: _300  and  _301
REMARK  122  A    between atoms: _300  and  _303
REMARK  123  A    between atoms: _303  and  _304
REMARK  124  A    between atoms: _307  and  _309
REMARK  125  A    between atoms: _309  and  _310
REMARK  126  A    between atoms: _309  and  _312
REMARK  127  A    between atoms: _312  and  _313
REMARK  128  A    between atoms: _316  and  _318
REMARK  129  A    between atoms: _318  and  _319
REMARK  130  A    between atoms: _321  and  _323
REMARK  131  A    between atoms: _323  and  _324
REMARK  132  A    between atoms: _323  and  _326
REMARK  133  A    between atoms: _326  and  _327
REMARK  134  A    between atoms: _330  and  _332
REMARK  135  A    between atoms: _332  and  _333
REMARK  136  A    between atoms: _332  and  _335
REMARK  137  A    between atoms: _335  and  _336
REMARK  138  A    between atoms: _339  and  _341
REMARK  139  A    between atoms: _341  and  _342
REMARK  140  A    between atoms: _341  and  _344
REMARK  141  A    between atoms: _344  and  _345
REMARK  142  A    between atoms: _345  and  _346
REMARK  143  A    between atoms: _346  and  _347
REMARK  144  A    between atoms: _356  and  _358
REMARK  145  A    between atoms: _358  and  _359
REMARK  146  A    between atoms: _358  and  _361
REMARK  147  A    between atoms: _361  and  _362
REMARK  148  A    between atoms: _367  and  _368
REMARK  149  A    between atoms: _370  and  _372
REMARK  150  A    between atoms: _372  and  _373
REMARK  151  A    between atoms: _372  and  _375
REMARK  152  A    between atoms: _378  and  _380
REMARK  153  A    between atoms: _380  and  _381
REMARK  154  A    between atoms: _380  and  _383
REMARK  155  A    between atoms: _383  and  _384
REMARK  156  A    between atoms: _384  and  _385
REMARK  157  A    between atoms: _385  and  _386
REMARK  158  A    between atoms: _395  and  _397
REMARK  159  A    between atoms: _397  and  _398
REMARK  160  A    between atoms: _397  and  _400
REMARK  161  A    between atoms: _400  and  _401
REMARK  162  A    between atoms: _406  and  _407
REMARK  163  A    between atoms: _409  and  _411
REMARK  164  A    between atoms: _411  and  _412
REMARK  165  A    between atoms: _414  and  _416
REMARK  166  A    between atoms: _416  and  _417
REMARK  167  A    between atoms: _416  and  _419
REMARK  168  A    between atoms: _419  and  _420
REMARK  169  A    between atoms: _420  and  _723
REMARK  170  A    between atoms: _421  and  _423
REMARK  171  A    between atoms: _423  and  _424
REMARK  172  A    between atoms: _423  and  _426
REMARK  173  A    between atoms: _426  and  _427
REMARK  174  A    between atoms: _432  and  _434
REMARK  175  A    between atoms: _434  and  _435
REMARK  176  A    between atoms: _434  and  _437
REMARK  177  A    between atoms: _437  and  _438
REMARK  178  A    between atoms: _443  and  _444
REMARK  179  A    between atoms: _446  and  _448
REMARK  180  A    between atoms: _448  and  _449
REMARK  181  A    between atoms: _452  and  _454
REMARK  182  A    between atoms: _454  and  _455
REMARK  183  A    between atoms: _454  and  _457
REMARK  184  A    between atoms: _457  and  _458
REMARK  185  A    between atoms: _463  and  _464
REMARK  186  A    between atoms: _466  and  _468
REMARK  187  A    between atoms: _468  and  _469
REMARK  188  A    between atoms: _468  and  _471
REMARK  189  A    between atoms: _471  and  _472
REMARK  190  A    between atoms: _477  and  _478
REMARK  191  A    between atoms: _480  and  _482
REMARK  192  A    between atoms: _482  and  _483
REMARK  193  A    between atoms: _482  and  _485
REMARK  194  A    between atoms: _485  and  _486
REMARK  195  A    between atoms: _489  and  _491
REMARK  196  A    between atoms: _491  and  _492
REMARK  197  A    between atoms: _491  and  _494
REMARK  198  A    between atoms: _494  and  _495
REMARK  199  A    between atoms: _505  and  _507
REMARK  200  A    between atoms: _507  and  _508
REMARK  201  A    between atoms: _511  and  _513
REMARK  202  A    between atoms: _513  and  _514
REMARK  203  A    between atoms: _517  and  _519
REMARK  204  A    between atoms: _519  and  _520
REMARK  205  A    between atoms: _519  and  _522
REMARK  206  A    between atoms: _522  and  _523
REMARK  207  A    between atoms: _523  and  _524
REMARK  208  A    between atoms: _529  and  _531
REMARK  209  A    between atoms: _531  and  _532
REMARK  210  A    between atoms: _531  and  _534
REMARK  211  A    between atoms: _534  and  _535
REMARK  212  A    between atoms: _538  and  _540
REMARK  213  A    between atoms: _540  and  _541
REMARK  214  A    between atoms: _540  and  _543
REMARK  215  A    between atoms: _543  and  _544
REMARK  216  A    between atoms: _547  and  _549
REMARK  217  A    between atoms: _549  and  _550
REMARK  218  A    between atoms: _549  and  _552
REMARK  219  A    between atoms: _552  and  _553
REMARK  220  A    between atoms: _553  and  _554
REMARK  221  A    between atoms: _554  and  _555
REMARK  222  A    between atoms: _555  and  _556
REMARK  223  A    between atoms: _560  and  _562
REMARK  224  A    between atoms: _562  and  _563
REMARK  225  A    between atoms: _562  and  _565
REMARK  226  A    between atoms: _565  and  _566
REMARK  227  A    between atoms: _571  and  _573
REMARK  228  A    between atoms: _573  and  _574
REMARK  229  A    between atoms: _573  and  _576
REMARK  230  A    between atoms: _576  and  _577
REMARK  231  A    between atoms: _577  and  _578
REMARK  232  A    between atoms: _578  and  _579
REMARK  233  A    between atoms: _579  and  _580
REMARK  234  A    between atoms: _584  and  _586
REMARK  235  A    between atoms: _586  and  _587
REMARK  236  A    between atoms: _586  and  _589
REMARK  237  A    between atoms: _589  and  _590
REMARK  238  A    between atoms: _600  and  _602
REMARK  239  A    between atoms: _602  and  _603
REMARK  240  A    between atoms: _602  and  _605
REMARK  241  A    between atoms: _605  and  _606
REMARK  242  A    between atoms: _606  and  _607
REMARK  243  A    between atoms: _610  and  _612
REMARK  244  A    between atoms: _612  and  _613
REMARK  245  A    between atoms: _616  and  _618
REMARK  246  A    between atoms: _618  and  _619
REMARK  247  A    between atoms: _622  and  _624
REMARK  248  A    between atoms: _624  and  _625
REMARK  249  A    between atoms: _624  and  _627
REMARK  250  A    between atoms: _627  and  _628
REMARK  251  A    between atoms: _633  and  _635
REMARK  252  A    between atoms: _635  and  _636
REMARK  253  A    between atoms: _635  and  _638
REMARK  254  A    between atoms: _641  and  _643
REMARK  255  A    between atoms: _643  and  _644
REMARK  256  A    between atoms: _647  and  _649
REMARK  257  A    between atoms: _649  and  _650
REMARK  258  A    between atoms: _649  and  _652
REMARK  259  A    between atoms: _652  and  _653
REMARK  260  A    between atoms: _653  and  _654
REMARK  261  A    between atoms: _659  and  _661
REMARK  262  A    between atoms: _661  and  _662
REMARK  263  A    between atoms: _661  and  _664
REMARK  264  A    between atoms: _664  and  _665
REMARK  265  A    between atoms: _668  and  _670
REMARK  266  A    between atoms: _670  and  _671
REMARK  267  A    between atoms: _670  and  _673
REMARK  268  A    between atoms: _673  and  _674
REMARK  269  A    between atoms: _674  and  _675
REMARK  270  A    between atoms: _675  and  _676
REMARK  271  A    between atoms: _685  and  _687
REMARK  272  A    between atoms: _687  and  _688
REMARK  273  A    between atoms: _687  and  _690
REMARK  274  A    between atoms: _690  and  _691
REMARK  275  A    between atoms: _696  and  _697
REMARK  276  A    between atoms: _699  and  _701
REMARK  277  A    between atoms: _701  and  _702
REMARK  278  A    between atoms: _701  and  _704
REMARK  279  A    between atoms: _704  and  _705
REMARK  280  A    between atoms: _708  and  _710
REMARK  281  A    between atoms: _710  and  _711
REMARK  282  A    between atoms: _710  and  _713
REMARK  283  A    between atoms: _713  and  _714
REMARK  284  A    between atoms: _717  and  _719
REMARK  285  A    between atoms: _719  and  _720
REMARK  286  A    between atoms: _719  and  _722
REMARK  287  A    between atoms: _722  and  _723
REMARK  288  A    between atoms: _724  and  _726
REMARK  289  A    between atoms: _726  and  _727
REMARK  290  A    between atoms: _726  and  _729
REMARK  291  A    between atoms: _732  and  _734
REMARK  292  A    between atoms: _734  and  _735
REMARK  293  A    between atoms: _734  and  _737
REMARK  294  A    between atoms: _737  and  _738
REMARK  295  A    between atoms: _738  and  _739
REMARK  296  A    between atoms: _742  and  _744
REMARK  297  A    between atoms: _744  and  _745
REMARK  298  A    between atoms: _744  and  _747
REMARK  299  A    between atoms: _747  and  _748
REMARK  300  A    between atoms: _758  and  _760
REMARK  301  A    between atoms: _760  and  _761
REMARK  302  A    between atoms: _760  and  _763
REMARK  303  A    between atoms: _763  and  _764
REMARK  304  A    between atoms: _767  and  _769
REMARK  305  A    between atoms: _769  and  _770
REMARK  306  A    between atoms: _769  and  _772
REMARK  307  A    between atoms: _772  and  _773
REMARK  308  A    between atoms: _773  and  _774
REMARK  309  A    between atoms: _774  and  _775
REMARK  310  A    between atoms: _784  and  _786
REMARK  311  A    between atoms: _786  and  _787
REMARK  312  A    between atoms: _786  and  _789
REMARK  313  A    between atoms: _789  and  _790
REMARK  314  A    between atoms: _795  and  _796
REMARK                            x       y       z     vdW  Elec       q    Type
REMARK                         _______ _______ _______ _____ _____    ______ ____
ROOT
ATOM      1  O   HOH     1      34.834   3.038  40.148  0.00  0.00    +0.000 OA
ENDROOT
TORSDOF 0
REMARK  Name = ../refined-set-2016/3qfd/3qfd_pocket.pdb
REMARK  314 active torsions:
REMARK  status: ('A' for Active; 'I' for Inactive)
REMARK    1  A    between atoms: _1  and  _3
REMARK    2  A    between atoms: _3  and  _4
REMARK    3  A    between atoms: _3  and  _6
REMARK    4  A    between atoms: _6  and  _7
REMARK    5  A    between atoms: _7  and  _8
REMARK    6  A    between atoms: _10  and  _12
REMARK    7  A    between atoms: _12  and  _13
REMARK    8  A    between atoms: _12  and  _15
REMARK    9  A    between atoms: _15  and  _16
REMARK   10  A    between atoms: _16  and  _17
REMARK   11  A    between atoms: _17  and  _18
REMARK   12  A    between atoms: _27  and  _29
REMARK   13  A    between atoms: _29  and  _30
REMARK   14  A    between atoms: _29  and  _32
REMARK   15  A    between atoms: _32  and  _33
REMARK   16  A    between atoms: _38  and  _39
REMARK   17  A    between atoms: _41  and  _43
REMARK   18  A    between atoms: _43  and  _44
REMARK   19  A    between atoms: _43  and  _46
REMARK   20  A    between atoms: _46  and  _47
REMARK   21  A    between atoms: _53  and  _55
REMARK   22  A    between atoms: _55  and  _56
REMARK   23  A    between atoms: _55  and  _58
REMARK   24  A    between atoms: _58  and  _59
REMARK   25  A    between atoms: _65  and  _67
REMARK   26  A    between atoms: _67  and  _68
REMARK   27  A    between atoms: _71  and  _73
REMARK   28  A    between atoms: _73  and  _74
REMARK   29  A    between atoms: _73  and  _76
REMARK   30  A    between atoms: _79  and  _81
REMARK   31  A    between atoms: _81  and  _82
REMARK   32  A    between atoms: _84  and  _86
REMARK   33  A    between atoms: _86  and  _87
REMARK   34  A    between atoms: _86  and  _89
REMARK   35  A    between atoms: _92  and  _94
REMARK   36  A    between atoms: _94  and  _95
REMARK   37  A    between atoms: _94  and  _97
REMARK   38  A    between atoms: _97  and  _98
REMARK   39  A    between atoms: _104  and  _106
REMARK   40  A    between atoms: _106  and  _107
REMARK   41  A    between atoms: _106  and  _109
REMARK   42  A    between atoms: _112  and  _114
REMARK   43  A    between atoms: _114  and  _115
REMARK   44  A    between atoms: _114  and  _117
REMARK   45  A    between atoms: _117  and  _118
REMARK   46  A    between atoms: _118  and  _119
REMARK   47  A    between atoms: _121  and  _123
REMARK   48  A    between atoms: _123  and  _124
REMARK   49  A    between atoms: _123  and  _126
REMARK   50  A    between atoms: _126  and  _127
REMARK   51  A    between atoms: _130  and  _132
REMARK   52  A    between atoms: _132  and  _133
REMARK   53  A    between atoms: _132  and  _135
REMARK   54  A    between atoms: _135  and  _136
REMARK   55  A    between atoms: _136  and  _137
REMARK   56  A    between atoms: _140  and  _142
REMARK   57  A    between atoms: _142  and  _143
REMARK   58  A    between atoms: _142  and  _145
REMARK   59  A    between atoms: _145  and  _146
REMARK   60  A    between atoms: _151  and  _152
REMARK   61  A    between atoms: _154  and  _156
REMARK   62  A    between atoms: _156  and  _157
REMARK   63  A    between atoms: _159  and  _161
REMARK   64  A    between atoms: _161  and  _162
REMARK   65  A    between atoms: _161  and  _164
REMARK   66  A    between atoms: _164  and  _165
REMARK   67  A    between atoms: _165  and  _166
REMARK   68  A    between atoms: _169  and  _171
REMARK   69  A    between atoms: _171  and  _172
REMARK   70  A    between atoms: _171  and  _174
REMARK   71  A    between atoms: _174  and  _175
REMARK   72  A    between atoms: _178  and  _180
REMARK   73  A    between atoms: _180  and  _181
REMARK   74  A    between atoms: _180  and  _183
REMARK   75  A    between atoms: _183  and  _184
REMARK   76  A    between atoms: _184  and  _185
REMARK   77  A    between atoms: _185  and  _186
REMARK   78  A    between atoms: _195  and  _197
REMARK   79  A    between atoms: _197  and  _198
REMARK   80  A    between atoms: _197  and  _200
REMARK   81  A    between atoms: _200  and  _201
REMARK   82  A    between atoms: _201  and  _202
REMARK   83  A    between atoms: _202  and  _203
REMARK   84  A    between atoms: _203  and  _204
REMARK   85  A    between atoms: _208  and  _210
REMARK   86  A    between atoms: _210  and  _211
REMARK   87  A    between atoms: _210  and  _213
REMARK   88  A    between atoms: _216  and  _218
REMARK   89  A    between atoms: _218  and  _219
REMARK   90  A    between atoms: _222  and  _224
REMARK   91  A    between atoms: _224  and  _225
REMARK   92  A    between atoms: _224  and  _227
REMARK   93  A    between atoms: _227  and  _228
REMARK   94  A    between atoms: _233  and  _235
REMARK   95  A    between atoms: _235  and  _236
REMARK   96  A    between atoms: _235  and  _238
REMARK   97  A    between atoms: _238  and  _239
REMARK   98  A    between atoms: _241  and  _243
REMARK   99  A    between atoms: _243  and  _244
REMARK  100  A    between atoms: _243  and  _246
REMARK  101  A    between atoms: _246  and  _247
REMARK  102  A    between atoms: _247  and  _248
REMARK  103  A    between atoms: _253  and  _255
REMARK  104  A    between atoms: _255  and  _256
REMARK  105  A    between atoms: _255  and  _258
REMARK  106  A    between atoms: _258  and  _259
REMARK  107  A    between atoms: _262  and  _264
REMARK  108  A    between atoms: _264  and  _265
REMARK  109  A    between atoms: _264  and  _267
REMARK  110  A    between atoms: _267  and  _268
REMARK  111  A    between atoms: _273  and  _275
REMARK  112  A    between atoms: _275  and  _276
REMARK  113  A    between atoms: _275  and  _278
REMARK  114  A    between atoms: _278  and  _279
REMARK  115  A    between atoms: _279  and  _280
REMARK  116  A    between atoms: _280  and  _281
REMARK  117  A    between atoms: _290  and  _292
REMARK  118  A    between atoms: _292  and  _293
REMARK  119  A    between atoms: _292  and  _295
REMARK  120  A    between atoms: _298  and  _300
REMARK  121  A    between atoms: _300  and  _301
REMARK  122  A    between atoms: _300  and  _303
REMARK  123  A    between atoms: _303  and  _304
REMARK  124  A    between atoms: _307  and  _309
REMARK  125  A    between atoms: _309  and  _310
REMARK  126  A    between atoms: _309  and  _312
REMARK  127  A    between atoms: _312  and  _313
REMARK  128  A    between atoms: _316  and  _318
REMARK  129  A    between atoms: _318  and  _319
REMARK  130  A    between atoms: _321  and  _323
REMARK  131  A    between atoms: _323  and  _324
REMARK  132  A    between atoms: _323  and  _326
REMARK  133  A    between atoms: _326  and  _327
REMARK  134  A    between atoms: _330  and  _332
REMARK  135  A    between atoms: _332  and  _333
REMARK  136  A    between atoms: _332  and  _335
REMARK  137  A    between atoms: _335  and  _336
REMARK  138  A    between atoms: _339  and  _341
REMARK  139  A    between atoms: _341  and  _342
REMARK  140  A    between atoms: _341  and  _344
REMARK  141  A    between atoms: _344  and  _345
REMARK  142  A    between atoms: _345  and  _346
REMARK  143  A    between atoms: _346  and  _347
REMARK  144  A    between atoms: _356  and  _358
REMARK  145  A    between atoms: _358  and  _359
REMARK  146  A    between atoms: _358  and  _361
REMARK  147  A    between atoms: _361  and  _362
REMARK  148  A    between atoms: _367  and  _368
REMARK  149  A    between atoms: _370  and  _372
REMARK  150  A    between atoms: _372  and  _373
REMARK  151  A    between atoms: _372  and  _375
REMARK  152  A    between atoms: _378  and  _380
REMARK  153  A    between atoms: _380  and  _381
REMARK  154  A    between atoms: _380  and  _383
REMARK  155  A    between atoms: _383  and  _384
REMARK  156  A    between atoms: _384  and  _385
REMARK  157  A    between atoms: _385  and  _386
REMARK  158  A    between atoms: _395  and  _397
REMARK  159  A    between atoms: _397  and  _398
REMARK  160  A    between atoms: _397  and  _400
REMARK  161  A    between atoms: _400  and  _401
REMARK  162  A    between atoms: _406  and  _407
REMARK  163  A    between atoms: _409  and  _411
REMARK  164  A    between atoms: _411  and  _412
REMARK  165  A    between atoms: _414  and  _416
REMARK  166  A    between atoms: _416  and  _417
REMARK  167  A    between atoms: _416  and  _419
REMARK  168  A    between atoms: _419  and  _420
REMARK  169  A    between atoms: _420  and  _723
REMARK  170  A    between atoms: _421  and  _423
REMARK  171  A    between atoms: _423  and  _424
REMARK  172  A    between atoms: _423  and  _426
REMARK  173  A    between atoms: _426  and  _427
REMARK  174  A    between atoms: _432  and  _434
REMARK  175  A    between atoms: _434  and  _435
REMARK  176  A    between atoms: _434  and  _437
REMARK  177  A    between atoms: _437  and  _438
REMARK  178  A    between atoms: _443  and  _444
REMARK  179  A    between atoms: _446  and  _448
REMARK  180  A    between atoms: _448  and  _449
REMARK  181  A    between atoms: _452  and  _454
REMARK  182  A    between atoms: _454  and  _455
REMARK  183  A    between atoms: _454  and  _457
REMARK  184  A    between atoms: _457  and  _458
REMARK  185  A    between atoms: _463  and  _464
REMARK  186  A    between atoms: _466  and  _468
REMARK  187  A    between atoms: _468  and  _469
REMARK  188  A    between atoms: _468  and  _471
REMARK  189  A    between atoms: _471  and  _472
REMARK  190  A    between atoms: _477  and  _478
REMARK  191  A    between atoms: _480  and  _482
REMARK  192  A    between atoms: _482  and  _483
REMARK  193  A    between atoms: _482  and  _485
REMARK  194  A    between atoms: _485  and  _486
REMARK  195  A    between atoms: _489  and  _491
REMARK  196  A    between atoms: _491  and  _492
REMARK  197  A    between atoms: _491  and  _494
REMARK  198  A    between atoms: _494  and  _495
REMARK  199  A    between atoms: _505  and  _507
REMARK  200  A    between atoms: _507  and  _508
REMARK  201  A    between atoms: _511  and  _513
REMARK  202  A    between atoms: _513  and  _514
REMARK  203  A    between atoms: _517  and  _519
REMARK  204  A    between atoms: _519  and  _520
REMARK  205  A    between atoms: _519  and  _522
REMARK  206  A    between atoms: _522  and  _523
REMARK  207  A    between atoms: _523  and  _524
REMARK  208  A    between atoms: _529  and  _531
REMARK  209  A    between atoms: _531  and  _532
REMARK  210  A    between atoms: _531  and  _534
REMARK  211  A    between atoms: _534  and  _535
REMARK  212  A    between atoms: _538  and  _540
REMARK  213  A    between atoms: _540  and  _541
REMARK  214  A    between atoms: _540  and  _543
REMARK  215  A    between atoms: _543  and  _544
REMARK  216  A    between atoms: _547  and  _549
REMARK  217  A    between atoms: _549  and  _550
REMARK  218  A    between atoms: _549  and  _552
REMARK  219  A    between atoms: _552  and  _553
REMARK  220  A    between atoms: _553  and  _554
REMARK  221  A    between atoms: _554  and  _555
REMARK  222  A    between atoms: _555  and  _556
REMARK  223  A    between atoms: _560  and  _562
REMARK  224  A    between atoms: _562  and  _563
REMARK  225  A    between atoms: _562  and  _565
REMARK  226  A    between atoms: _565  and  _566
REMARK  227  A    between atoms: _571  and  _573
REMARK  228  A    between atoms: _573  and  _574
REMARK  229  A    between atoms: _573  and  _576
REMARK  230  A    between atoms: _576  and  _577
REMARK  231  A    between atoms: _577  and  _578
REMARK  232  A    between atoms: _578  and  _579
REMARK  233  A    between atoms: _579  and  _580
REMARK  234  A    between atoms: _584  and  _586
REMARK  235  A    between atoms: _586  and  _587
REMARK  236  A    between atoms: _586  and  _589
REMARK  237  A    between atoms: _589  and  _590
REMARK  238  A    between atoms: _600  and  _602
REMARK  239  A    between atoms: _602  and  _603
REMARK  240  A    between atoms: _602  and  _605
REMARK  241  A    between atoms: _605  and  _606
REMARK  242  A    between atoms: _606  and  _607
REMARK  243  A    between atoms: _610  and  _612
REMARK  244  A    between atoms: _612  and  _613
REMARK  245  A    between atoms: _616  and  _618
REMARK  246  A    between atoms: _618  and  _619
REMARK  247  A    between atoms: _622  and  _624
REMARK  248  A    between atoms: _624  and  _625
REMARK  249  A    between atoms: _624  and  _627
REMARK  250  A    between atoms: _627  and  _628
REMARK  251  A    between atoms: _633  and  _635
REMARK  252  A    between atoms: _635  and  _636
REMARK  253  A    between atoms: _635  and  _638
REMARK  254  A    between atoms: _641  and  _643
REMARK  255  A    between atoms: _643  and  _644
REMARK  256  A    between atoms: _647  and  _649
REMARK  257  A    between atoms: _649  and  _650
REMARK  258  A    between atoms: _649  and  _652
REMARK  259  A    between atoms: _652  and  _653
REMARK  260  A    between atoms: _653  and  _654
REMARK  261  A    between atoms: _659  and  _661
REMARK  262  A    between atoms: _661  and  _662
REMARK  263  A    between atoms: _661  and  _664
REMARK  264  A    between atoms: _664  and  _665
REMARK  265  A    between atoms: _668  and  _670
REMARK  266  A    between atoms: _670  and  _671
REMARK  267  A    between atoms: _670  and  _673
REMARK  268  A    between atoms: _673  and  _674
REMARK  269  A    between atoms: _674  and  _675
REMARK  270  A    between atoms: _675  and  _676
REMARK  271  A    between atoms: _685  and  _687
REMARK  272  A    between atoms: _687  and  _688
REMARK  273  A    between atoms: _687  and  _690
REMARK  274  A    between atoms: _690  and  _691
REMARK  275  A    between atoms: _696  and  _697
REMARK  276  A    between atoms: _699  and  _701
REMARK  277  A    between atoms: _701  and  _702
REMARK  278  A    between atoms: _701  and  _704
REMARK  279  A    between atoms: _704  and  _705
REMARK  280  A    between atoms: _708  and  _710
REMARK  281  A    between atoms: _710  and  _711
REMARK  282  A    between atoms: _710  and  _713
REMARK  283  A    between atoms: _713  and  _714
REMARK  284  A    between atoms: _717  and  _719
REMARK  285  A    between atoms: _719  and  _720
REMARK  286  A    between atoms: _719  and  _722
REMARK  287  A    between atoms: _722  and  _723
REMARK  288  A    between atoms: _724  and  _726
REMARK  289  A    between atoms: _726  and  _727
REMARK  290  A    between atoms: _726  and  _729
REMARK  291  A    between atoms: _732  and  _734
REMARK  292  A    between atoms: _734  and  _735
REMARK  293  A    between atoms: _734  and  _737
REMARK  294  A    between atoms: _737  and  _738
REMARK  295  A    between atoms: _738  and  _739
REMARK  296  A    between atoms: _742  and  _744
REMARK  297  A    between atoms: _744  and  _745
REMARK  298  A    between atoms: _744  and  _747
REMARK  299  A    between atoms: _747  and  _748
REMARK  300  A    between atoms: _758  and  _760
REMARK  301  A    between atoms: _760  and  _761
REMARK  302  A    between atoms: _760  and  _763
REMARK  303  A    between atoms: _763  and  _764
REMARK  304  A    between atoms: _767  and  _769
REMARK  305  A    between atoms: _769  and  _770
REMARK  306  A    between atoms: _769  and  _772
REMARK  307  A    between atoms: _772  and  _773
REMARK  308  A    between atoms: _773  and  _774
REMARK  309  A    between atoms: _774  and  _775
REMARK  310  A    between atoms: _784  and  _786
REMARK  311  A    between atoms: _786  and  _787
REMARK  312  A    between atoms: _786  and  _789
REMARK  313  A    between atoms: _789  and  _790
REMARK  314  A    between atoms: _795  and  _796
REMARK                            x       y       z     vdW  Elec       q    Type
REMARK                         _______ _______ _______ _____ _____    ______ ____
ROOT
ATOM      1  O   HOH     1      24.817  -6.433  50.249  0.00  0.00    +0.000 OA
ENDROOT
TORSDOF 0
REMARK  Name = ../refined-set-2016/3qfd/3qfd_pocket.pdb
REMARK  314 active torsions:
REMARK  status: ('A' for Active; 'I' for Inactive)
REMARK    1  A    between atoms: _1  and  _3
REMARK    2  A    between atoms: _3  and  _4
REMARK    3  A    between atoms: _3  and  _6
REMARK    4  A    between atoms: _6  and  _7
REMARK    5  A    between atoms: _7  and  _8
REMARK    6  A    between atoms: _10  and  _12
REMARK    7  A    between atoms: _12  and  _13
REMARK    8  A    between atoms: _12  and  _15
REMARK    9  A    between atoms: _15  and  _16
REMARK   10  A    between atoms: _16  and  _17
REMARK   11  A    between atoms: _17  and  _18
REMARK   12  A    between atoms: _27  and  _29
REMARK   13  A    between atoms: _29  and  _30
REMARK   14  A    between atoms: _29  and  _32
REMARK   15  A    between atoms: _32  and  _33
REMARK   16  A    between atoms: _38  and  _39
REMARK   17  A    between atoms: _41  and  _43
REMARK   18  A    between atoms: _43  and  _44
REMARK   19  A    between atoms: _43  and  _46
REMARK   20  A    between atoms: _46  and  _47
REMARK   21  A    between atoms: _53  and  _55
REMARK   22  A    between atoms: _55  and  _56
REMARK   23  A    between atoms: _55  and  _58
REMARK   24  A    between atoms: _58  and  _59
REMARK   25  A    between atoms: _65  and  _67
REMARK   26  A    between atoms: _67  and  _68
REMARK   27  A    between atoms: _71  and  _73
REMARK   28  A    between atoms: _73  and  _74
REMARK   29  A    between atoms: _73  and  _76
REMARK   30  A    between atoms: _79  and  _81
REMARK   31  A    between atoms: _81  and  _82
REMARK   32  A    between atoms: _84  and  _86
REMARK   33  A    between atoms: _86  and  _87
REMARK   34  A    between atoms: _86  and  _89
REMARK   35  A    between atoms: _92  and  _94
REMARK   36  A    between atoms: _94  and  _95
REMARK   37  A    between atoms: _94  and  _97
REMARK   38  A    between atoms: _97  and  _98
REMARK   39  A    between atoms: _104  and  _106
REMARK   40  A    between atoms: _106  and  _107
REMARK   41  A    between atoms: _106  and  _109
REMARK   42  A    between atoms: _112  and  _114
REMARK   43  A    between atoms: _114  and  _115
REMARK   44  A    between atoms: _114  and  _117
REMARK   45  A    between atoms: _117  and  _118
REMARK   46  A    between atoms: _118  and  _119
REMARK   47  A    between atoms: _121  and  _123
REMARK   48  A    between atoms: _123  and  _124
REMARK   49  A    between atoms: _123  and  _126
REMARK   50  A    between atoms: _126  and  _127
REMARK   51  A    between atoms: _130  and  _132
REMARK   52  A    between atoms: _132  and  _133
REMARK   53  A    between atoms: _132  and  _135
REMARK   54  A    between atoms: _135  and  _136
REMARK   55  A    between atoms: _136  and  _137
REMARK   56  A    between atoms: _140  and  _142
REMARK   57  A    between atoms: _142  and  _143
REMARK   58  A    between atoms: _142  and  _145
REMARK   59  A    between atoms: _145  and  _146
REMARK   60  A    between atoms: _151  and  _152
REMARK   61  A    between atoms: _154  and  _156
REMARK   62  A    between atoms: _156  and  _157
REMARK   63  A    between atoms: _159  and  _161
REMARK   64  A    between atoms: _161  and  _162
REMARK   65  A    between atoms: _161  and  _164
REMARK   66  A    between atoms: _164  and  _165
REMARK   67  A    between atoms: _165  and  _166
REMARK   68  A    between atoms: _169  and  _171
REMARK   69  A    between atoms: _171  and  _172
REMARK   70  A    between atoms: _171  and  _174
REMARK   71  A    between atoms: _174  and  _175
REMARK   72  A    between atoms: _178  and  _180
REMARK   73  A    between atoms: _180  and  _181
REMARK   74  A    between atoms: _180  and  _183
REMARK   75  A    between atoms: _183  and  _184
REMARK   76  A    between atoms: _184  and  _185
REMARK   77  A    between atoms: _185  and  _186
REMARK   78  A    between atoms: _195  and  _197
REMARK   79  A    between atoms: _197  and  _198
REMARK   80  A    between atoms: _197  and  _200
REMARK   81  A    between atoms: _200  and  _201
REMARK   82  A    between atoms: _201  and  _202
REMARK   83  A    between atoms: _202  and  _203
REMARK   84  A    between atoms: _203  and  _204
REMARK   85  A    between atoms: _208  and  _210
REMARK   86  A    between atoms: _210  and  _211
REMARK   87  A    between atoms: _210  and  _213
REMARK   88  A    between atoms: _216  and  _218
REMARK   89  A    between atoms: _218  and  _219
REMARK   90  A    between atoms: _222  and  _224
REMARK   91  A    between atoms: _224  and  _225
REMARK   92  A    between atoms: _224  and  _227
REMARK   93  A    between atoms: _227  and  _228
REMARK   94  A    between atoms: _233  and  _235
REMARK   95  A    between atoms: _235  and  _236
REMARK   96  A    between atoms: _235  and  _238
REMARK   97  A    between atoms: _238  and  _239
REMARK   98  A    between atoms: _241  and  _243
REMARK   99  A    between atoms: _243  and  _244
REMARK  100  A    between atoms: _243  and  _246
REMARK  101  A    between atoms: _246  and  _247
REMARK  102  A    between atoms: _247  and  _248
REMARK  103  A    between atoms: _253  and  _255
REMARK  104  A    between atoms: _255  and  _256
REMARK  105  A    between atoms: _255  and  _258
REMARK  106  A    between atoms: _258  and  _259
REMARK  107  A    between atoms: _262  and  _264
REMARK  108  A    between atoms: _264  and  _265
REMARK  109  A    between atoms: _264  and  _267
REMARK  110  A    between atoms: _267  and  _268
REMARK  111  A    between atoms: _273  and  _275
REMARK  112  A    between atoms: _275  and  _276
REMARK  113  A    between atoms: _275  and  _278
REMARK  114  A    between atoms: _278  and  _279
REMARK  115  A    between atoms: _279  and  _280
REMARK  116  A    between atoms: _280  and  _281
REMARK  117  A    between atoms: _290  and  _292
REMARK  118  A    between atoms: _292  and  _293
REMARK  119  A    between atoms: _292  and  _295
REMARK  120  A    between atoms: _298  and  _300
REMARK  121  A    between atoms: _300  and  _301
REMARK  122  A    between atoms: _300  and  _303
REMARK  123  A    between atoms: _303  and  _304
REMARK  124  A    between atoms: _307  and  _309
REMARK  125  A    between atoms: _309  and  _310
REMARK  126  A    between atoms: _309  and  _312
REMARK  127  A    between atoms: _312  and  _313
REMARK  128  A    between atoms: _316  and  _318
REMARK  129  A    between atoms: _318  and  _319
REMARK  130  A    between atoms: _321  and  _323
REMARK  131  A    between atoms: _323  and  _324
REMARK  132  A    between atoms: _323  and  _326
REMARK  133  A    between atoms: _326  and  _327
REMARK  134  A    between atoms: _330  and  _332
REMARK  135  A    between atoms: _332  and  _333
REMARK  136  A    between atoms: _332  and  _335
REMARK  137  A    between atoms: _335  and  _336
REMARK  138  A    between atoms: _339  and  _341
REMARK  139  A    between atoms: _341  and  _342
REMARK  140  A    between atoms: _341  and  _344
REMARK  141  A    between atoms: _344  and  _345
REMARK  142  A    between atoms: _345  and  _346
REMARK  143  A    between atoms: _346  and  _347
REMARK  144  A    between atoms: _356  and  _358
REMARK  145  A    between atoms: _358  and  _359
REMARK  146  A    between atoms: _358  and  _361
REMARK  147  A    between atoms: _361  and  _362
REMARK  148  A    between atoms: _367  and  _368
REMARK  149  A    between atoms: _370  and  _372
REMARK  150  A    between atoms: _372  and  _373
REMARK  151  A    between atoms: _372  and  _375
REMARK  152  A    between atoms: _378  and  _380
REMARK  153  A    between atoms: _380  and  _381
REMARK  154  A    between atoms: _380  and  _383
REMARK  155  A    between atoms: _383  and  _384
REMARK  156  A    between atoms: _384  and  _385
REMARK  157  A    between atoms: _385  and  _386
REMARK  158  A    between atoms: _395  and  _397
REMARK  159  A    between atoms: _397  and  _398
REMARK  160  A    between atoms: _397  and  _400
REMARK  161  A    between atoms: _400  and  _401
REMARK  162  A    between atoms: _406  and  _407
REMARK  163  A    between atoms: _409  and  _411
REMARK  164  A    between atoms: _411  and  _412
REMARK  165  A    between atoms: _414  and  _416
REMARK  166  A    between atoms: _416  and  _417
REMARK  167  A    between atoms: _416  and  _419
REMARK  168  A    between atoms: _419  and  _420
REMARK  169  A    between atoms: _420  and  _723
REMARK  170  A    between atoms: _421  and  _423
REMARK  171  A    between atoms: _423  and  _424
REMARK  172  A    between atoms: _423  and  _426
REMARK  173  A    between atoms: _426  and  _427
REMARK  174  A    between atoms: _432  and  _434
REMARK  175  A    between atoms: _434  and  _435
REMARK  176  A    between atoms: _434  and  _437
REMARK  177  A    between atoms: _437  and  _438
REMARK  178  A    between atoms: _443  and  _444
REMARK  179  A    between atoms: _446  and  _448
REMARK  180  A    between atoms: _448  and  _449
REMARK  181  A    between atoms: _452  and  _454
REMARK  182  A    between atoms: _454  and  _455
REMARK  183  A    between atoms: _454  and  _457
REMARK  184  A    between atoms: _457  and  _458
REMARK  185  A    between atoms: _463  and  _464
REMARK  186  A    between atoms: _466  and  _468
REMARK  187  A    between atoms: _468  and  _469
REMARK  188  A    between atoms: _468  and  _471
REMARK  189  A    between atoms: _471  and  _472
REMARK  190  A    between atoms: _477  and  _478
REMARK  191  A    between atoms: _480  and  _482
REMARK  192  A    between atoms: _482  and  _483
REMARK  193  A    between atoms: _482  and  _485
REMARK  194  A    between atoms: _485  and  _486
REMARK  195  A    between atoms: _489  and  _491
REMARK  196  A    between atoms: _491  and  _492
REMARK  197  A    between atoms: _491  and  _494
REMARK  198  A    between atoms: _494  and  _495
REMARK  199  A    between atoms: _505  and  _507
REMARK  200  A    between atoms: _507  and  _508
REMARK  201  A    between atoms: _511  and  _513
REMARK  202  A    between atoms: _513  and  _514
REMARK  203  A    between atoms: _517  and  _519
REMARK  204  A    between atoms: _519  and  _520
REMARK  205  A    between atoms: _519  and  _522
REMARK  206  A    between atoms: _522  and  _523
REMARK  207  A    between atoms: _523  and  _524
REMARK  208  A    between atoms: _529  and  _531
REMARK  209  A    between atoms: _531  and  _532
REMARK  210  A    between atoms: _531  and  _534
REMARK  211  A    between atoms: _534  and  _535
REMARK  212  A    between atoms: _538  and  _540
REMARK  213  A    between atoms: _540  and  _541
REMARK  214  A    between atoms: _540  and  _543
REMARK  215  A    between atoms: _543  and  _544
REMARK  216  A    between atoms: _547  and  _549
REMARK  217  A    between atoms: _549  and  _550
REMARK  218  A    between atoms: _549  and  _552
REMARK  219  A    between atoms: _552  and  _553
REMARK  220  A    between atoms: _553  and  _554
REMARK  221  A    between atoms: _554  and  _555
REMARK  222  A    between atoms: _555  and  _556
REMARK  223  A    between atoms: _560  and  _562
REMARK  224  A    between atoms: _562  and  _563
REMARK  225  A    between atoms: _562  and  _565
REMARK  226  A    between atoms: _565  and  _566
REMARK  227  A    between atoms: _571  and  _573
REMARK  228  A    between atoms: _573  and  _574
REMARK  229  A    between atoms: _573  and  _576
REMARK  230  A    between atoms: _576  and  _577
REMARK  231  A    between atoms: _577  and  _578
REMARK  232  A    between atoms: _578  and  _579
REMARK  233  A    between atoms: _579  and  _580
REMARK  234  A    between atoms: _584  and  _586
REMARK  235  A    between atoms: _586  and  _587
REMARK  236  A    between atoms: _586  and  _589
REMARK  237  A    between atoms: _589  and  _590
REMARK  238  A    between atoms: _600  and  _602
REMARK  239  A    between atoms: _602  and  _603
REMARK  240  A    between atoms: _602  and  _605
REMARK  241  A    between atoms: _605  and  _606
REMARK  242  A    between atoms: _606  and  _607
REMARK  243  A    between atoms: _610  and  _612
REMARK  244  A    between atoms: _612  and  _613
REMARK  245  A    between atoms: _616  and  _618
REMARK  246  A    between atoms: _618  and  _619
REMARK  247  A    between atoms: _622  and  _624
REMARK  248  A    between atoms: _624  and  _625
REMARK  249  A    between atoms: _624  and  _627
REMARK  250  A    between atoms: _627  and  _628
REMARK  251  A    between atoms: _633  and  _635
REMARK  252  A    between atoms: _635  and  _636
REMARK  253  A    between atoms: _635  and  _638
REMARK  254  A    between atoms: _641  and  _643
REMARK  255  A    between atoms: _643  and  _644
REMARK  256  A    between atoms: _647  and  _649
REMARK  257  A    between atoms: _649  and  _650
REMARK  258  A    between atoms: _649  and  _652
REMARK  259  A    between atoms: _652  and  _653
REMARK  260  A    between atoms: _653  and  _654
REMARK  261  A    between atoms: _659  and  _661
REMARK  262  A    between atoms: _661  and  _662
REMARK  263  A    between atoms: _661  and  _664
REMARK  264  A    between atoms: _664  and  _665
REMARK  265  A    between atoms: _668  and  _670
REMARK  266  A    between atoms: _670  and  _671
REMARK  267  A    between atoms: _670  and  _673
REMARK  268  A    between atoms: _673  and  _674
REMARK  269  A    between atoms: _674  and  _675
REMARK  270  A    between atoms: _675  and  _676
REMARK  271  A    between atoms: _685  and  _687
REMARK  272  A    between atoms: _687  and  _688
REMARK  273  A    between atoms: _687  and  _690
REMARK  274  A    between atoms: _690  and  _691
REMARK  275  A    between atoms: _696  and  _697
REMARK  276  A    between atoms: _699  and  _701
REMARK  277  A    between atoms: _701  and  _702
REMARK  278  A    between atoms: _701  and  _704
REMARK  279  A    between atoms: _704  and  _705
REMARK  280  A    between atoms: _708  and  _710
REMARK  281  A    between atoms: _710  and  _711
REMARK  282  A    between atoms: _710  and  _713
REMARK  283  A    between atoms: _713  and  _714
REMARK  284  A    between atoms: _717  and  _719
REMARK  285  A    between atoms: _719  and  _720
REMARK  286  A    between atoms: _719  and  _722
REMARK  287  A    between atoms: _722  and  _723
REMARK  288  A    between atoms: _724  and  _726
REMARK  289  A    between atoms: _726  and  _727
REMARK  290  A    between atoms: _726  and  _729
REMARK  291  A    between atoms: _732  and  _734
REMARK  292  A    between atoms: _734  and  _735
REMARK  293  A    between atoms: _734  and  _737
REMARK  294  A    between atoms: _737  and  _738
REMARK  295  A    between atoms: _738  and  _739
REMARK  296  A    between atoms: _742  and  _744
REMARK  297  A    between atoms: _744  and  _745
REMARK  298  A    between atoms: _744  and  _747
REMARK  299  A    between atoms: _747  and  _748
REMARK  300  A    between atoms: _758  and  _760
REMARK  301  A    between atoms: _760  and  _761
REMARK  302  A    between atoms: _760  and  _763
REMARK  303  A    between atoms: _763  and  _764
REMARK  304  A    between atoms: _767  and  _769
REMARK  305  A    between atoms: _769  and  _770
REMARK  306  A    between atoms: _769  and  _772
REMARK  307  A    between atoms: _772  and  _773
REMARK  308  A    between atoms: _773  and  _774
REMARK  309  A    between atoms: _774  and  _775
REMARK  310  A    between atoms: _784  and  _786
REMARK  311  A    between atoms: _786  and  _787
REMARK  312  A    between atoms: _786  and  _789
REMARK  313  A    between atoms: _789  and  _790
REMARK  314  A    between atoms: _795  and  _796
REMARK                            x       y       z     vdW  Elec       q    Type
REMARK                         _______ _______ _______ _____ _____    ______ ____
ROOT
ATOM      1  O   HOH     1      29.985  -2.004  41.877  0.00  0.00    +0.000 OA
ENDROOT
TORSDOF 0
REMARK  Name = ../refined-set-2016/3qfd/3qfd_pocket.pdb
REMARK  314 active torsions:
REMARK  status: ('A' for Active; 'I' for Inactive)
REMARK    1  A    between atoms: _1  and  _3
REMARK    2  A    between atoms: _3  and  _4
REMARK    3  A    between atoms: _3  and  _6
REMARK    4  A    between atoms: _6  and  _7
REMARK    5  A    between atoms: _7  and  _8
REMARK    6  A    between atoms: _10  and  _12
REMARK    7  A    between atoms: _12  and  _13
REMARK    8  A    between atoms: _12  and  _15
REMARK    9  A    between atoms: _15  and  _16
REMARK   10  A    between atoms: _16  and  _17
REMARK   11  A    between atoms: _17  and  _18
REMARK   12  A    between atoms: _27  and  _29
REMARK   13  A    between atoms: _29  and  _30
REMARK   14  A    between atoms: _29  and  _32
REMARK   15  A    between atoms: _32  and  _33
REMARK   16  A    between atoms: _38  and  _39
REMARK   17  A    between atoms: _41  and  _43
REMARK   18  A    between atoms: _43  and  _44
REMARK   19  A    between atoms: _43  and  _46
REMARK   20  A    between atoms: _46  and  _47
REMARK   21  A    between atoms: _53  and  _55
REMARK   22  A    between atoms: _55  and  _56
REMARK   23  A    between atoms: _55  and  _58
REMARK   24  A    between atoms: _58  and  _59
REMARK   25  A    between atoms: _65  and  _67
REMARK   26  A    between atoms: _67  and  _68
REMARK   27  A    between atoms: _71  and  _73
REMARK   28  A    between atoms: _73  and  _74
REMARK   29  A    between atoms: _73  and  _76
REMARK   30  A    between atoms: _79  and  _81
REMARK   31  A    between atoms: _81  and  _82
REMARK   32  A    between atoms: _84  and  _86
REMARK   33  A    between atoms: _86  and  _87
REMARK   34  A    between atoms: _86  and  _89
REMARK   35  A    between atoms: _92  and  _94
REMARK   36  A    between atoms: _94  and  _95
REMARK   37  A    between atoms: _94  and  _97
REMARK   38  A    between atoms: _97  and  _98
REMARK   39  A    between atoms: _104  and  _106
REMARK   40  A    between atoms: _106  and  _107
REMARK   41  A    between atoms: _106  and  _109
REMARK   42  A    between atoms: _112  and  _114
REMARK   43  A    between atoms: _114  and  _115
REMARK   44  A    between atoms: _114  and  _117
REMARK   45  A    between atoms: _117  and  _118
REMARK   46  A    between atoms: _118  and  _119
REMARK   47  A    between atoms: _121  and  _123
REMARK   48  A    between atoms: _123  and  _124
REMARK   49  A    between atoms: _123  and  _126
REMARK   50  A    between atoms: _126  and  _127
REMARK   51  A    between atoms: _130  and  _132
REMARK   52  A    between atoms: _132  and  _133
REMARK   53  A    between atoms: _132  and  _135
REMARK   54  A    between atoms: _135  and  _136
REMARK   55  A    between atoms: _136  and  _137
REMARK   56  A    between atoms: _140  and  _142
REMARK   57  A    between atoms: _142  and  _143
REMARK   58  A    between atoms: _142  and  _145
REMARK   59  A    between atoms: _145  and  _146
REMARK   60  A    between atoms: _151  and  _152
REMARK   61  A    between atoms: _154  and  _156
REMARK   62  A    between atoms: _156  and  _157
REMARK   63  A    between atoms: _159  and  _161
REMARK   64  A    between atoms: _161  and  _162
REMARK   65  A    between atoms: _161  and  _164
REMARK   66  A    between atoms: _164  and  _165
REMARK   67  A    between atoms: _165  and  _166
REMARK   68  A    between atoms: _169  and  _171
REMARK   69  A    between atoms: _171  and  _172
REMARK   70  A    between atoms: _171  and  _174
REMARK   71  A    between atoms: _174  and  _175
REMARK   72  A    between atoms: _178  and  _180
REMARK   73  A    between atoms: _180  and  _181
REMARK   74  A    between atoms: _180  and  _183
REMARK   75  A    between atoms: _183  and  _184
REMARK   76  A    between atoms: _184  and  _185
REMARK   77  A    between atoms: _185  and  _186
REMARK   78  A    between atoms: _195  and  _197
REMARK   79  A    between atoms: _197  and  _198
REMARK   80  A    between atoms: _197  and  _200
REMARK   81  A    between atoms: _200  and  _201
REMARK   82  A    between atoms: _201  and  _202
REMARK   83  A    between atoms: _202  and  _203
REMARK   84  A    between atoms: _203  and  _204
REMARK   85  A    between atoms: _208  and  _210
REMARK   86  A    between atoms: _210  and  _211
REMARK   87  A    between atoms: _210  and  _213
REMARK   88  A    between atoms: _216  and  _218
REMARK   89  A    between atoms: _218  and  _219
REMARK   90  A    between atoms: _222  and  _224
REMARK   91  A    between atoms: _224  and  _225
REMARK   92  A    between atoms: _224  and  _227
REMARK   93  A    between atoms: _227  and  _228
REMARK   94  A    between atoms: _233  and  _235
REMARK   95  A    between atoms: _235  and  _236
REMARK   96  A    between atoms: _235  and  _238
REMARK   97  A    between atoms: _238  and  _239
REMARK   98  A    between atoms: _241  and  _243
REMARK   99  A    between atoms: _243  and  _244
REMARK  100  A    between atoms: _243  and  _246
REMARK  101  A    between atoms: _246  and  _247
REMARK  102  A    between atoms: _247  and  _248
REMARK  103  A    between atoms: _253  and  _255
REMARK  104  A    between atoms: _255  and  _256
REMARK  105  A    between atoms: _255  and  _258
REMARK  106  A    between atoms: _258  and  _259
REMARK  107  A    between atoms: _262  and  _264
REMARK  108  A    between atoms: _264  and  _265
REMARK  109  A    between atoms: _264  and  _267
REMARK  110  A    between atoms: _267  and  _268
REMARK  111  A    between atoms: _273  and  _275
REMARK  112  A    between atoms: _275  and  _276
REMARK  113  A    between atoms: _275  and  _278
REMARK  114  A    between atoms: _278  and  _279
REMARK  115  A    between atoms: _279  and  _280
REMARK  116  A    between atoms: _280  and  _281
REMARK  117  A    between atoms: _290  and  _292
REMARK  118  A    between atoms: _292  and  _293
REMARK  119  A    between atoms: _292  and  _295
REMARK  120  A    between atoms: _298  and  _300
REMARK  121  A    between atoms: _300  and  _301
REMARK  122  A    between atoms: _300  and  _303
REMARK  123  A    between atoms: _303  and  _304
REMARK  124  A    between atoms: _307  and  _309
REMARK  125  A    between atoms: _309  and  _310
REMARK  126  A    between atoms: _309  and  _312
REMARK  127  A    between atoms: _312  and  _313
REMARK  128  A    between atoms: _316  and  _318
REMARK  129  A    between atoms: _318  and  _319
REMARK  130  A    between atoms: _321  and  _323
REMARK  131  A    between atoms: _323  and  _324
REMARK  132  A    between atoms: _323  and  _326
REMARK  133  A    between atoms: _326  and  _327
REMARK  134  A    between atoms: _330  and  _332
REMARK  135  A    between atoms: _332  and  _333
REMARK  136  A    between atoms: _332  and  _335
REMARK  137  A    between atoms: _335  and  _336
REMARK  138  A    between atoms: _339  and  _341
REMARK  139  A    between atoms: _341  and  _342
REMARK  140  A    between atoms: _341  and  _344
REMARK  141  A    between atoms: _344  and  _345
REMARK  142  A    between atoms: _345  and  _346
REMARK  143  A    between atoms: _346  and  _347
REMARK  144  A    between atoms: _356  and  _358
REMARK  145  A    between atoms: _358  and  _359
REMARK  146  A    between atoms: _358  and  _361
REMARK  147  A    between atoms: _361  and  _362
REMARK  148  A    between atoms: _367  and  _368
REMARK  149  A    between atoms: _370  and  _372
REMARK  150  A    between atoms: _372  and  _373
REMARK  151  A    between atoms: _372  and  _375
REMARK  152  A    between atoms: _378  and  _380
REMARK  153  A    between atoms: _380  and  _381
REMARK  154  A    between atoms: _380  and  _383
REMARK  155  A    between atoms: _383  and  _384
REMARK  156  A    between atoms: _384  and  _385
REMARK  157  A    between atoms: _385  and  _386
REMARK  158  A    between atoms: _395  and  _397
REMARK  159  A    between atoms: _397  and  _398
REMARK  160  A    between atoms: _397  and  _400
REMARK  161  A    between atoms: _400  and  _401
REMARK  162  A    between atoms: _406  and  _407
REMARK  163  A    between atoms: _409  and  _411
REMARK  164  A    between atoms: _411  and  _412
REMARK  165  A    between atoms: _414  and  _416
REMARK  166  A    between atoms: _416  and  _417
REMARK  167  A    between atoms: _416  and  _419
REMARK  168  A    between atoms: _419  and  _420
REMARK  169  A    between atoms: _420  and  _723
REMARK  170  A    between atoms: _421  and  _423
REMARK  171  A    between atoms: _423  and  _424
REMARK  172  A    between atoms: _423  and  _426
REMARK  173  A    between atoms: _426  and  _427
REMARK  174  A    between atoms: _432  and  _434
REMARK  175  A    between atoms: _434  and  _435
REMARK  176  A    between atoms: _434  and  _437
REMARK  177  A    between atoms: _437  and  _438
REMARK  178  A    between atoms: _443  and  _444
REMARK  179  A    between atoms: _446  and  _448
REMARK  180  A    between atoms: _448  and  _449
REMARK  181  A    between atoms: _452  and  _454
REMARK  182  A    between atoms: _454  and  _455
REMARK  183  A    between atoms: _454  and  _457
REMARK  184  A    between atoms: _457  and  _458
REMARK  185  A    between atoms: _463  and  _464
REMARK  186  A    between atoms: _466  and  _468
REMARK  187  A    between atoms: _468  and  _469
REMARK  188  A    between atoms: _468  and  _471
REMARK  189  A    between atoms: _471  and  _472
REMARK  190  A    between atoms: _477  and  _478
REMARK  191  A    between atoms: _480  and  _482
REMARK  192  A    between atoms: _482  and  _483
REMARK  193  A    between atoms: _482  and  _485
REMARK  194  A    between atoms: _485  and  _486
REMARK  195  A    between atoms: _489  and  _491
REMARK  196  A    between atoms: _491  and  _492
REMARK  197  A    between atoms: _491  and  _494
REMARK  198  A    between atoms: _494  and  _495
REMARK  199  A    between atoms: _505  and  _507
REMARK  200  A    between atoms: _507  and  _508
REMARK  201  A    between atoms: _511  and  _513
REMARK  202  A    between atoms: _513  and  _514
REMARK  203  A    between atoms: _517  and  _519
REMARK  204  A    between atoms: _519  and  _520
REMARK  205  A    between atoms: _519  and  _522
REMARK  206  A    between atoms: _522  and  _523
REMARK  207  A    between atoms: _523  and  _524
REMARK  208  A    between atoms: _529  and  _531
REMARK  209  A    between atoms: _531  and  _532
REMARK  210  A    between atoms: _531  and  _534
REMARK  211  A    between atoms: _534  and  _535
REMARK  212  A    between atoms: _538  and  _540
REMARK  213  A    between atoms: _540  and  _541
REMARK  214  A    between atoms: _540  and  _543
REMARK  215  A    between atoms: _543  and  _544
REMARK  216  A    between atoms: _547  and  _549
REMARK  217  A    between atoms: _549  and  _550
REMARK  218  A    between atoms: _549  and  _552
REMARK  219  A    between atoms: _552  and  _553
REMARK  220  A    between atoms: _553  and  _554
REMARK  221  A    between atoms: _554  and  _555
REMARK  222  A    between atoms: _555  and  _556
REMARK  223  A    between atoms: _560  and  _562
REMARK  224  A    between atoms: _562  and  _563
REMARK  225  A    between atoms: _562  and  _565
REMARK  226  A    between atoms: _565  and  _566
REMARK  227  A    between atoms: _571  and  _573
REMARK  228  A    between atoms: _573  and  _574
REMARK  229  A    between atoms: _573  and  _576
REMARK  230  A    between atoms: _576  and  _577
REMARK  231  A    between atoms: _577  and  _578
REMARK  232  A    between atoms: _578  and  _579
REMARK  233  A    between atoms: _579  and  _580
REMARK  234  A    between atoms: _584  and  _586
REMARK  235  A    between atoms: _586  and  _587
REMARK  236  A    between atoms: _586  and  _589
REMARK  237  A    between atoms: _589  and  _590
REMARK  238  A    between atoms: _600  and  _602
REMARK  239  A    between atoms: _602  and  _603
REMARK  240  A    between atoms: _602  and  _605
REMARK  241  A    between atoms: _605  and  _606
REMARK  242  A    between atoms: _606  and  _607
REMARK  243  A    between atoms: _610  and  _612
REMARK  244  A    between atoms: _612  and  _613
REMARK  245  A    between atoms: _616  and  _618
REMARK  246  A    between atoms: _618  and  _619
REMARK  247  A    between atoms: _622  and  _624
REMARK  248  A    between atoms: _624  and  _625
REMARK  249  A    between atoms: _624  and  _627
REMARK  250  A    between atoms: _627  and  _628
REMARK  251  A    between atoms: _633  and  _635
REMARK  252  A    between atoms: _635  and  _636
REMARK  253  A    between atoms: _635  and  _638
REMARK  254  A    between atoms: _641  and  _643
REMARK  255  A    between atoms: _643  and  _644
REMARK  256  A    between atoms: _647  and  _649
REMARK  257  A    between atoms: _649  and  _650
REMARK  258  A    between atoms: _649  and  _652
REMARK  259  A    between atoms: _652  and  _653
REMARK  260  A    between atoms: _653  and  _654
REMARK  261  A    between atoms: _659  and  _661
REMARK  262  A    between atoms: _661  and  _662
REMARK  263  A    between atoms: _661  and  _664
REMARK  264  A    between atoms: _664  and  _665
REMARK  265  A    between atoms: _668  and  _670
REMARK  266  A    between atoms: _670  and  _671
REMARK  267  A    between atoms: _670  and  _673
REMARK  268  A    between atoms: _673  and  _674
REMARK  269  A    between atoms: _674  and  _675
REMARK  270  A    between atoms: _675  and  _676
REMARK  271  A    between atoms: _685  and  _687
REMARK  272  A    between atoms: _687  and  _688
REMARK  273  A    between atoms: _687  and  _690
REMARK  274  A    between atoms: _690  and  _691
REMARK  275  A    between atoms: _696  and  _697
REMARK  276  A    between atoms: _699  and  _701
REMARK  277  A    between atoms: _701  and  _702
REMARK  278  A    between atoms: _701  and  _704
REMARK  279  A    between atoms: _704  and  _705
REMARK  280  A    between atoms: _708  and  _710
REMARK  281  A    between atoms: _710  and  _711
REMARK  282  A    between atoms: _710  and  _713
REMARK  283  A    between atoms: _713  and  _714
REMARK  284  A    between atoms: _717  and  _719
REMARK  285  A    between atoms: _719  and  _720
REMARK  286  A    between atoms: _719  and  _722
REMARK  287  A    between atoms: _722  and  _723
REMARK  288  A    between atoms: _724  and  _726
REMARK  289  A    between atoms: _726  and  _727
REMARK  290  A    between atoms: _726  and  _729
REMARK  291  A    between atoms: _732  and  _734
REMARK  292  A    between atoms: _734  and  _735
REMARK  293  A    between atoms: _734  and  _737
REMARK  294  A    between atoms: _737  and  _738
REMARK  295  A    between atoms: _738  and  _739
REMARK  296  A    between atoms: _742  and  _744
REMARK  297  A    between atoms: _744  and  _745
REMARK  298  A    between atoms: _744  and  _747
REMARK  299  A    between atoms: _747  and  _748
REMARK  300  A    between atoms: _758  and  _760
REMARK  301  A    between atoms: _760  and  _761
REMARK  302  A    between atoms: _760  and  _763
REMARK  303  A    between atoms: _763  and  _764
REMARK  304  A    between atoms: _767  and  _769
REMARK  305  A    between atoms: _769  and  _770
REMARK  306  A    between atoms: _769  and  _772
REMARK  307  A    between atoms: _772  and  _773
REMARK  308  A    between atoms: _773  and  _774
REMARK  309  A    between atoms: _774  and  _775
REMARK  310  A    between atoms: _784  and  _786
REMARK  311  A    between atoms: _786  and  _787
REMARK  312  A    between atoms: _786  and  _789
REMARK  313  A    between atoms: _789  and  _790
REMARK  314  A    between atoms: _795  and  _796
REMARK                            x       y       z     vdW  Elec       q    Type
REMARK                         _______ _______ _______ _____ _____    ______ ____
ROOT
ATOM      1  O   HOH     1      29.279  -9.118  41.392  0.00  0.00    +0.000 OA
ENDROOT
TORSDOF 0
REMARK  Name = ../refined-set-2016/3qfd/3qfd_pocket.pdb
REMARK  314 active torsions:
REMARK  status: ('A' for Active; 'I' for Inactive)
REMARK    1  A    between atoms: _1  and  _3
REMARK    2  A    between atoms: _3  and  _4
REMARK    3  A    between atoms: _3  and  _6
REMARK    4  A    between atoms: _6  and  _7
REMARK    5  A    between atoms: _7  and  _8
REMARK    6  A    between atoms: _10  and  _12
REMARK    7  A    between atoms: _12  and  _13
REMARK    8  A    between atoms: _12  and  _15
REMARK    9  A    between atoms: _15  and  _16
REMARK   10  A    between atoms: _16  and  _17
REMARK   11  A    between atoms: _17  and  _18
REMARK   12  A    between atoms: _27  and  _29
REMARK   13  A    between atoms: _29  and  _30
REMARK   14  A    between atoms: _29  and  _32
REMARK   15  A    between atoms: _32  and  _33
REMARK   16  A    between atoms: _38  and  _39
REMARK   17  A    between atoms: _41  and  _43
REMARK   18  A    between atoms: _43  and  _44
REMARK   19  A    between atoms: _43  and  _46
REMARK   20  A    between atoms: _46  and  _47
REMARK   21  A    between atoms: _53  and  _55
REMARK   22  A    between atoms: _55  and  _56
REMARK   23  A    between atoms: _55  and  _58
REMARK   24  A    between atoms: _58  and  _59
REMARK   25  A    between atoms: _65  and  _67
REMARK   26  A    between atoms: _67  and  _68
REMARK   27  A    between atoms: _71  and  _73
REMARK   28  A    between atoms: _73  and  _74
REMARK   29  A    between atoms: _73  and  _76
REMARK   30  A    between atoms: _79  and  _81
REMARK   31  A    between atoms: _81  and  _82
REMARK   32  A    between atoms: _84  and  _86
REMARK   33  A    between atoms: _86  and  _87
REMARK   34  A    between atoms: _86  and  _89
REMARK   35  A    between atoms: _92  and  _94
REMARK   36  A    between atoms: _94  and  _95
REMARK   37  A    between atoms: _94  and  _97
REMARK   38  A    between atoms: _97  and  _98
REMARK   39  A    between atoms: _104  and  _106
REMARK   40  A    between atoms: _106  and  _107
REMARK   41  A    between atoms: _106  and  _109
REMARK   42  A    between atoms: _112  and  _114
REMARK   43  A    between atoms: _114  and  _115
REMARK   44  A    between atoms: _114  and  _117
REMARK   45  A    between atoms: _117  and  _118
REMARK   46  A    between atoms: _118  and  _119
REMARK   47  A    between atoms: _121  and  _123
REMARK   48  A    between atoms: _123  and  _124
REMARK   49  A    between atoms: _123  and  _126
REMARK   50  A    between atoms: _126  and  _127
REMARK   51  A    between atoms: _130  and  _132
REMARK   52  A    between atoms: _132  and  _133
REMARK   53  A    between atoms: _132  and  _135
REMARK   54  A    between atoms: _135  and  _136
REMARK   55  A    between atoms: _136  and  _137
REMARK   56  A    between atoms: _140  and  _142
REMARK   57  A    between atoms: _142  and  _143
REMARK   58  A    between atoms: _142  and  _145
REMARK   59  A    between atoms: _145  and  _146
REMARK   60  A    between atoms: _151  and  _152
REMARK   61  A    between atoms: _154  and  _156
REMARK   62  A    between atoms: _156  and  _157
REMARK   63  A    between atoms: _159  and  _161
REMARK   64  A    between atoms: _161  and  _162
REMARK   65  A    between atoms: _161  and  _164
REMARK   66  A    between atoms: _164  and  _165
REMARK   67  A    between atoms: _165  and  _166
REMARK   68  A    between atoms: _169  and  _171
REMARK   69  A    between atoms: _171  and  _172
REMARK   70  A    between atoms: _171  and  _174
REMARK   71  A    between atoms: _174  and  _175
REMARK   72  A    between atoms: _178  and  _180
REMARK   73  A    between atoms: _180  and  _181
REMARK   74  A    between atoms: _180  and  _183
REMARK   75  A    between atoms: _183  and  _184
REMARK   76  A    between atoms: _184  and  _185
REMARK   77  A    between atoms: _185  and  _186
REMARK   78  A    between atoms: _195  and  _197
REMARK   79  A    between atoms: _197  and  _198
REMARK   80  A    between atoms: _197  and  _200
REMARK   81  A    between atoms: _200  and  _201
REMARK   82  A    between atoms: _201  and  _202
REMARK   83  A    between atoms: _202  and  _203
REMARK   84  A    between atoms: _203  and  _204
REMARK   85  A    between atoms: _208  and  _210
REMARK   86  A    between atoms: _210  and  _211
REMARK   87  A    between atoms: _210  and  _213
REMARK   88  A    between atoms: _216  and  _218
REMARK   89  A    between atoms: _218  and  _219
REMARK   90  A    between atoms: _222  and  _224
REMARK   91  A    between atoms: _224  and  _225
REMARK   92  A    between atoms: _224  and  _227
REMARK   93  A    between atoms: _227  and  _228
REMARK   94  A    between atoms: _233  and  _235
REMARK   95  A    between atoms: _235  and  _236
REMARK   96  A    between atoms: _235  and  _238
REMARK   97  A    between atoms: _238  and  _239
REMARK   98  A    between atoms: _241  and  _243
REMARK   99  A    between atoms: _243  and  _244
REMARK  100  A    between atoms: _243  and  _246
REMARK  101  A    between atoms: _246  and  _247
REMARK  102  A    between atoms: _247  and  _248
REMARK  103  A    between atoms: _253  and  _255
REMARK  104  A    between atoms: _255  and  _256
REMARK  105  A    between atoms: _255  and  _258
REMARK  106  A    between atoms: _258  and  _259
REMARK  107  A    between atoms: _262  and  _264
REMARK  108  A    between atoms: _264  and  _265
REMARK  109  A    between atoms: _264  and  _267
REMARK  110  A    between atoms: _267  and  _268
REMARK  111  A    between atoms: _273  and  _275
REMARK  112  A    between atoms: _275  and  _276
REMARK  113  A    between atoms: _275  and  _278
REMARK  114  A    between atoms: _278  and  _279
REMARK  115  A    between atoms: _279  and  _280
REMARK  116  A    between atoms: _280  and  _281
REMARK  117  A    between atoms: _290  and  _292
REMARK  118  A    between atoms: _292  and  _293
REMARK  119  A    between atoms: _292  and  _295
REMARK  120  A    between atoms: _298  and  _300
REMARK  121  A    between atoms: _300  and  _301
REMARK  122  A    between atoms: _300  and  _303
REMARK  123  A    between atoms: _303  and  _304
REMARK  124  A    between atoms: _307  and  _309
REMARK  125  A    between atoms: _309  and  _310
REMARK  126  A    between atoms: _309  and  _312
REMARK  127  A    between atoms: _312  and  _313
REMARK  128  A    between atoms: _316  and  _318
REMARK  129  A    between atoms: _318  and  _319
REMARK  130  A    between atoms: _321  and  _323
REMARK  131  A    between atoms: _323  and  _324
REMARK  132  A    between atoms: _323  and  _326
REMARK  133  A    between atoms: _326  and  _327
REMARK  134  A    between atoms: _330  and  _332
REMARK  135  A    between atoms: _332  and  _333
REMARK  136  A    between atoms: _332  and  _335
REMARK  137  A    between atoms: _335  and  _336
REMARK  138  A    between atoms: _339  and  _341
REMARK  139  A    between atoms: _341  and  _342
REMARK  140  A    between atoms: _341  and  _344
REMARK  141  A    between atoms: _344  and  _345
REMARK  142  A    between atoms: _345  and  _346
REMARK  143  A    between atoms: _346  and  _347
REMARK  144  A    between atoms: _356  and  _358
REMARK  145  A    between atoms: _358  and  _359
REMARK  146  A    between atoms: _358  and  _361
REMARK  147  A    between atoms: _361  and  _362
REMARK  148  A    between atoms: _367  and  _368
REMARK  149  A    between atoms: _370  and  _372
REMARK  150  A    between atoms: _372  and  _373
REMARK  151  A    between atoms: _372  and  _375
REMARK  152  A    between atoms: _378  and  _380
REMARK  153  A    between atoms: _380  and  _381
REMARK  154  A    between atoms: _380  and  _383
REMARK  155  A    between atoms: _383  and  _384
REMARK  156  A    between atoms: _384  and  _385
REMARK  157  A    between atoms: _385  and  _386
REMARK  158  A    between atoms: _395  and  _397
REMARK  159  A    between atoms: _397  and  _398
REMARK  160  A    between atoms: _397  and  _400
REMARK  161  A    between atoms: _400  and  _401
REMARK  162  A    between atoms: _406  and  _407
REMARK  163  A    between atoms: _409  and  _411
REMARK  164  A    between atoms: _411  and  _412
REMARK  165  A    between atoms: _414  and  _416
REMARK  166  A    between atoms: _416  and  _417
REMARK  167  A    between atoms: _416  and  _419
REMARK  168  A    between atoms: _419  and  _420
REMARK  169  A    between atoms: _420  and  _723
REMARK  170  A    between atoms: _421  and  _423
REMARK  171  A    between atoms: _423  and  _424
REMARK  172  A    between atoms: _423  and  _426
REMARK  173  A    between atoms: _426  and  _427
REMARK  174  A    between atoms: _432  and  _434
REMARK  175  A    between atoms: _434  and  _435
REMARK  176  A    between atoms: _434  and  _437
REMARK  177  A    between atoms: _437  and  _438
REMARK  178  A    between atoms: _443  and  _444
REMARK  179  A    between atoms: _446  and  _448
REMARK  180  A    between atoms: _448  and  _449
REMARK  181  A    between atoms: _452  and  _454
REMARK  182  A    between atoms: _454  and  _455
REMARK  183  A    between atoms: _454  and  _457
REMARK  184  A    between atoms: _457  and  _458
REMARK  185  A    between atoms: _463  and  _464
REMARK  186  A    between atoms: _466  and  _468
REMARK  187  A    between atoms: _468  and  _469
REMARK  188  A    between atoms: _468  and  _471
REMARK  189  A    between atoms: _471  and  _472
REMARK  190  A    between atoms: _477  and  _478
REMARK  191  A    between atoms: _480  and  _482
REMARK  192  A    between atoms: _482  and  _483
REMARK  193  A    between atoms: _482  and  _485
REMARK  194  A    between atoms: _485  and  _486
REMARK  195  A    between atoms: _489  and  _491
REMARK  196  A    between atoms: _491  and  _492
REMARK  197  A    between atoms: _491  and  _494
REMARK  198  A    between atoms: _494  and  _495
REMARK  199  A    between atoms: _505  and  _507
REMARK  200  A    between atoms: _507  and  _508
REMARK  201  A    between atoms: _511  and  _513
REMARK  202  A    between atoms: _513  and  _514
REMARK  203  A    between atoms: _517  and  _519
REMARK  204  A    between atoms: _519  and  _520
REMARK  205  A    between atoms: _519  and  _522
REMARK  206  A    between atoms: _522  and  _523
REMARK  207  A    between atoms: _523  and  _524
REMARK  208  A    between atoms: _529  and  _531
REMARK  209  A    between atoms: _531  and  _532
REMARK  210  A    between atoms: _531  and  _534
REMARK  211  A    between atoms: _534  and  _535
REMARK  212  A    between atoms: _538  and  _540
REMARK  213  A    between atoms: _540  and  _541
REMARK  214  A    between atoms: _540  and  _543
REMARK  215  A    between atoms: _543  and  _544
REMARK  216  A    between atoms: _547  and  _549
REMARK  217  A    between atoms: _549  and  _550
REMARK  218  A    between atoms: _549  and  _552
REMARK  219  A    between atoms: _552  and  _553
REMARK  220  A    between atoms: _553  and  _554
REMARK  221  A    between atoms: _554  and  _555
REMARK  222  A    between atoms: _555  and  _556
REMARK  223  A    between atoms: _560  and  _562
REMARK  224  A    between atoms: _562  and  _563
REMARK  225  A    between atoms: _562  and  _565
REMARK  226  A    between atoms: _565  and  _566
REMARK  227  A    between atoms: _571  and  _573
REMARK  228  A    between atoms: _573  and  _574
REMARK  229  A    between atoms: _573  and  _576
REMARK  230  A    between atoms: _576  and  _577
REMARK  231  A    between atoms: _577  and  _578
REMARK  232  A    between atoms: _578  and  _579
REMARK  233  A    between atoms: _579  and  _580
REMARK  234  A    between atoms: _584  and  _586
REMARK  235  A    between atoms: _586  and  _587
REMARK  236  A    between atoms: _586  and  _589
REMARK  237  A    between atoms: _589  and  _590
REMARK  238  A    between atoms: _600  and  _602
REMARK  239  A    between atoms: _602  and  _603
REMARK  240  A    between atoms: _602  and  _605
REMARK  241  A    between atoms: _605  and  _606
REMARK  242  A    between atoms: _606  and  _607
REMARK  243  A    between atoms: _610  and  _612
REMARK  244  A    between atoms: _612  and  _613
REMARK  245  A    between atoms: _616  and  _618
REMARK  246  A    between atoms: _618  and  _619
REMARK  247  A    between atoms: _622  and  _624
REMARK  248  A    between atoms: _624  and  _625
REMARK  249  A    between atoms: _624  and  _627
REMARK  250  A    between atoms: _627  and  _628
REMARK  251  A    between atoms: _633  and  _635
REMARK  252  A    between atoms: _635  and  _636
REMARK  253  A    between atoms: _635  and  _638
REMARK  254  A    between atoms: _641  and  _643
REMARK  255  A    between atoms: _643  and  _644
REMARK  256  A    between atoms: _647  and  _649
REMARK  257  A    between atoms: _649  and  _650
REMARK  258  A    between atoms: _649  and  _652
REMARK  259  A    between atoms: _652  and  _653
REMARK  260  A    between atoms: _653  and  _654
REMARK  261  A    between atoms: _659  and  _661
REMARK  262  A    between atoms: _661  and  _662
REMARK  263  A    between atoms: _661  and  _664
REMARK  264  A    between atoms: _664  and  _665
REMARK  265  A    between atoms: _668  and  _670
REMARK  266  A    between atoms: _670  and  _671
REMARK  267  A    between atoms: _670  and  _673
REMARK  268  A    between atoms: _673  and  _674
REMARK  269  A    between atoms: _674  and  _675
REMARK  270  A    between atoms: _675  and  _676
REMARK  271  A    between atoms: _685  and  _687
REMARK  272  A    between atoms: _687  and  _688
REMARK  273  A    between atoms: _687  and  _690
REMARK  274  A    between atoms: _690  and  _691
REMARK  275  A    between atoms: _696  and  _697
REMARK  276  A    between atoms: _699  and  _701
REMARK  277  A    between atoms: _701  and  _702
REMARK  278  A    between atoms: _701  and  _704
REMARK  279  A    between atoms: _704  and  _705
REMARK  280  A    between atoms: _708  and  _710
REMARK  281  A    between atoms: _710  and  _711
REMARK  282  A    between atoms: _710  and  _713
REMARK  283  A    between atoms: _713  and  _714
REMARK  284  A    between atoms: _717  and  _719
REMARK  285  A    between atoms: _719  and  _720
REMARK  286  A    between atoms: _719  and  _722
REMARK  287  A    between atoms: _722  and  _723
REMARK  288  A    between atoms: _724  and  _726
REMARK  289  A    between atoms: _726  and  _727
REMARK  290  A    between atoms: _726  and  _729
REMARK  291  A    between atoms: _732  and  _734
REMARK  292  A    between atoms: _734  and  _735
REMARK  293  A    between atoms: _734  and  _737
REMARK  294  A    between atoms: _737  and  _738
REMARK  295  A    between atoms: _738  and  _739
REMARK  296  A    between atoms: _742  and  _744
REMARK  297  A    between atoms: _744  and  _745
REMARK  298  A    between atoms: _744  and  _747
REMARK  299  A    between atoms: _747  and  _748
REMARK  300  A    between atoms: _758  and  _760
REMARK  301  A    between atoms: _760  and  _761
REMARK  302  A    between atoms: _760  and  _763
REMARK  303  A    between atoms: _763  and  _764
REMARK  304  A    between atoms: _767  and  _769
REMARK  305  A    between atoms: _769  and  _770
REMARK  306  A    between atoms: _769  and  _772
REMARK  307  A    between atoms: _772  and  _773
REMARK  308  A    between atoms: _773  and  _774
REMARK  309  A    between atoms: _774  and  _775
REMARK  310  A    between atoms: _784  and  _786
REMARK  311  A    between atoms: _786  and  _787
REMARK  312  A    between atoms: _786  and  _789
REMARK  313  A    between atoms: _789  and  _790
REMARK  314  A    between atoms: _795  and  _796
REMARK                            x       y       z     vdW  Elec       q    Type
REMARK                         _______ _______ _______ _____ _____    ______ ____
ROOT
ATOM      1  O   HOH     1      38.171  -0.382  36.076  0.00  0.00    +0.000 OA
ENDROOT
TORSDOF 0
REMARK  Name = ../refined-set-2016/3qfd/3qfd_pocket.pdb
REMARK  314 active torsions:
REMARK  status: ('A' for Active; 'I' for Inactive)
REMARK    1  A    between atoms: _1  and  _3
REMARK    2  A    between atoms: _3  and  _4
REMARK    3  A    between atoms: _3  and  _6
REMARK    4  A    between atoms: _6  and  _7
REMARK    5  A    between atoms: _7  and  _8
REMARK    6  A    between atoms: _10  and  _12
REMARK    7  A    between atoms: _12  and  _13
REMARK    8  A    between atoms: _12  and  _15
REMARK    9  A    between atoms: _15  and  _16
REMARK   10  A    between atoms: _16  and  _17
REMARK   11  A    between atoms: _17  and  _18
REMARK   12  A    between atoms: _27  and  _29
REMARK   13  A    between atoms: _29  and  _30
REMARK   14  A    between atoms: _29  and  _32
REMARK   15  A    between atoms: _32  and  _33
REMARK   16  A    between atoms: _38  and  _39
REMARK   17  A    between atoms: _41  and  _43
REMARK   18  A    between atoms: _43  and  _44
REMARK   19  A    between atoms: _43  and  _46
REMARK   20  A    between atoms: _46  and  _47
REMARK   21  A    between atoms: _53  and  _55
REMARK   22  A    between atoms: _55  and  _56
REMARK   23  A    between atoms: _55  and  _58
REMARK   24  A    between atoms: _58  and  _59
REMARK   25  A    between atoms: _65  and  _67
REMARK   26  A    between atoms: _67  and  _68
REMARK   27  A    between atoms: _71  and  _73
REMARK   28  A    between atoms: _73  and  _74
REMARK   29  A    between atoms: _73  and  _76
REMARK   30  A    between atoms: _79  and  _81
REMARK   31  A    between atoms: _81  and  _82
REMARK   32  A    between atoms: _84  and  _86
REMARK   33  A    between atoms: _86  and  _87
REMARK   34  A    between atoms: _86  and  _89
REMARK   35  A    between atoms: _92  and  _94
REMARK   36  A    between atoms: _94  and  _95
REMARK   37  A    between atoms: _94  and  _97
REMARK   38  A    between atoms: _97  and  _98
REMARK   39  A    between atoms: _104  and  _106
REMARK   40  A    between atoms: _106  and  _107
REMARK   41  A    between atoms: _106  and  _109
REMARK   42  A    between atoms: _112  and  _114
REMARK   43  A    between atoms: _114  and  _115
REMARK   44  A    between atoms: _114  and  _117
REMARK   45  A    between atoms: _117  and  _118
REMARK   46  A    between atoms: _118  and  _119
REMARK   47  A    between atoms: _121  and  _123
REMARK   48  A    between atoms: _123  and  _124
REMARK   49  A    between atoms: _123  and  _126
REMARK   50  A    between atoms: _126  and  _127
REMARK   51  A    between atoms: _130  and  _132
REMARK   52  A    between atoms: _132  and  _133
REMARK   53  A    between atoms: _132  and  _135
REMARK   54  A    between atoms: _135  and  _136
REMARK   55  A    between atoms: _136  and  _137
REMARK   56  A    between atoms: _140  and  _142
REMARK   57  A    between atoms: _142  and  _143
REMARK   58  A    between atoms: _142  and  _145
REMARK   59  A    between atoms: _145  and  _146
REMARK   60  A    between atoms: _151  and  _152
REMARK   61  A    between atoms: _154  and  _156
REMARK   62  A    between atoms: _156  and  _157
REMARK   63  A    between atoms: _159  and  _161
REMARK   64  A    between atoms: _161  and  _162
REMARK   65  A    between atoms: _161  and  _164
REMARK   66  A    between atoms: _164  and  _165
REMARK   67  A    between atoms: _165  and  _166
REMARK   68  A    between atoms: _169  and  _171
REMARK   69  A    between atoms: _171  and  _172
REMARK   70  A    between atoms: _171  and  _174
REMARK   71  A    between atoms: _174  and  _175
REMARK   72  A    between atoms: _178  and  _180
REMARK   73  A    between atoms: _180  and  _181
REMARK   74  A    between atoms: _180  and  _183
REMARK   75  A    between atoms: _183  and  _184
REMARK   76  A    between atoms: _184  and  _185
REMARK   77  A    between atoms: _185  and  _186
REMARK   78  A    between atoms: _195  and  _197
REMARK   79  A    between atoms: _197  and  _198
REMARK   80  A    between atoms: _197  and  _200
REMARK   81  A    between atoms: _200  and  _201
REMARK   82  A    between atoms: _201  and  _202
REMARK   83  A    between atoms: _202  and  _203
REMARK   84  A    between atoms: _203  and  _204
REMARK   85  A    between atoms: _208  and  _210
REMARK   86  A    between atoms: _210  and  _211
REMARK   87  A    between atoms: _210  and  _213
REMARK   88  A    between atoms: _216  and  _218
REMARK   89  A    between atoms: _218  and  _219
REMARK   90  A    between atoms: _222  and  _224
REMARK   91  A    between atoms: _224  and  _225
REMARK   92  A    between atoms: _224  and  _227
REMARK   93  A    between atoms: _227  and  _228
REMARK   94  A    between atoms: _233  and  _235
REMARK   95  A    between atoms: _235  and  _236
REMARK   96  A    between atoms: _235  and  _238
REMARK   97  A    between atoms: _238  and  _239
REMARK   98  A    between atoms: _241  and  _243
REMARK   99  A    between atoms: _243  and  _244
REMARK  100  A    between atoms: _243  and  _246
REMARK  101  A    between atoms: _246  and  _247
REMARK  102  A    between atoms: _247  and  _248
REMARK  103  A    between atoms: _253  and  _255
REMARK  104  A    between atoms: _255  and  _256
REMARK  105  A    between atoms: _255  and  _258
REMARK  106  A    between atoms: _258  and  _259
REMARK  107  A    between atoms: _262  and  _264
REMARK  108  A    between atoms: _264  and  _265
REMARK  109  A    between atoms: _264  and  _267
REMARK  110  A    between atoms: _267  and  _268
REMARK  111  A    between atoms: _273  and  _275
REMARK  112  A    between atoms: _275  and  _276
REMARK  113  A    between atoms: _275  and  _278
REMARK  114  A    between atoms: _278  and  _279
REMARK  115  A    between atoms: _279  and  _280
REMARK  116  A    between atoms: _280  and  _281
REMARK  117  A    between atoms: _290  and  _292
REMARK  118  A    between atoms: _292  and  _293
REMARK  119  A    between atoms: _292  and  _295
REMARK  120  A    between atoms: _298  and  _300
REMARK  121  A    between atoms: _300  and  _301
REMARK  122  A    between atoms: _300  and  _303
REMARK  123  A    between atoms: _303  and  _304
REMARK  124  A    between atoms: _307  and  _309
REMARK  125  A    between atoms: _309  and  _310
REMARK  126  A    between atoms: _309  and  _312
REMARK  127  A    between atoms: _312  and  _313
REMARK  128  A    between atoms: _316  and  _318
REMARK  129  A    between atoms: _318  and  _319
REMARK  130  A    between atoms: _321  and  _323
REMARK  131  A    between atoms: _323  and  _324
REMARK  132  A    between atoms: _323  and  _326
REMARK  133  A    between atoms: _326  and  _327
REMARK  134  A    between atoms: _330  and  _332
REMARK  135  A    between atoms: _332  and  _333
REMARK  136  A    between atoms: _332  and  _335
REMARK  137  A    between atoms: _335  and  _336
REMARK  138  A    between atoms: _339  and  _341
REMARK  139  A    between atoms: _341  and  _342
REMARK  140  A    between atoms: _341  and  _344
REMARK  141  A    between atoms: _344  and  _345
REMARK  142  A    between atoms: _345  and  _346
REMARK  143  A    between atoms: _346  and  _347
REMARK  144  A    between atoms: _356  and  _358
REMARK  145  A    between atoms: _358  and  _359
REMARK  146  A    between atoms: _358  and  _361
REMARK  147  A    between atoms: _361  and  _362
REMARK  148  A    between atoms: _367  and  _368
REMARK  149  A    between atoms: _370  and  _372
REMARK  150  A    between atoms: _372  and  _373
REMARK  151  A    between atoms: _372  and  _375
REMARK  152  A    between atoms: _378  and  _380
REMARK  153  A    between atoms: _380  and  _381
REMARK  154  A    between atoms: _380  and  _383
REMARK  155  A    between atoms: _383  and  _384
REMARK  156  A    between atoms: _384  and  _385
REMARK  157  A    between atoms: _385  and  _386
REMARK  158  A    between atoms: _395  and  _397
REMARK  159  A    between atoms: _397  and  _398
REMARK  160  A    between atoms: _397  and  _400
REMARK  161  A    between atoms: _400  and  _401
REMARK  162  A    between atoms: _406  and  _407
REMARK  163  A    between atoms: _409  and  _411
REMARK  164  A    between atoms: _411  and  _412
REMARK  165  A    between atoms: _414  and  _416
REMARK  166  A    between atoms: _416  and  _417
REMARK  167  A    between atoms: _416  and  _419
REMARK  168  A    between atoms: _419  and  _420
REMARK  169  A    between atoms: _420  and  _723
REMARK  170  A    between atoms: _421  and  _423
REMARK  171  A    between atoms: _423  and  _424
REMARK  172  A    between atoms: _423  and  _426
REMARK  173  A    between atoms: _426  and  _427
REMARK  174  A    between atoms: _432  and  _434
REMARK  175  A    between atoms: _434  and  _435
REMARK  176  A    between atoms: _434  and  _437
REMARK  177  A    between atoms: _437  and  _438
REMARK  178  A    between atoms: _443  and  _444
REMARK  179  A    between atoms: _446  and  _448
REMARK  180  A    between atoms: _448  and  _449
REMARK  181  A    between atoms: _452  and  _454
REMARK  182  A    between atoms: _454  and  _455
REMARK  183  A    between atoms: _454  and  _457
REMARK  184  A    between atoms: _457  and  _458
REMARK  185  A    between atoms: _463  and  _464
REMARK  186  A    between atoms: _466  and  _468
REMARK  187  A    between atoms: _468  and  _469
REMARK  188  A    between atoms: _468  and  _471
REMARK  189  A    between atoms: _471  and  _472
REMARK  190  A    between atoms: _477  and  _478
REMARK  191  A    between atoms: _480  and  _482
REMARK  192  A    between atoms: _482  and  _483
REMARK  193  A    between atoms: _482  and  _485
REMARK  194  A    between atoms: _485  and  _486
REMARK  195  A    between atoms: _489  and  _491
REMARK  196  A    between atoms: _491  and  _492
REMARK  197  A    between atoms: _491  and  _494
REMARK  198  A    between atoms: _494  and  _495
REMARK  199  A    between atoms: _505  and  _507
REMARK  200  A    between atoms: _507  and  _508
REMARK  201  A    between atoms: _511  and  _513
REMARK  202  A    between atoms: _513  and  _514
REMARK  203  A    between atoms: _517  and  _519
REMARK  204  A    between atoms: _519  and  _520
REMARK  205  A    between atoms: _519  and  _522
REMARK  206  A    between atoms: _522  and  _523
REMARK  207  A    between atoms: _523  and  _524
REMARK  208  A    between atoms: _529  and  _531
REMARK  209  A    between atoms: _531  and  _532
REMARK  210  A    between atoms: _531  and  _534
REMARK  211  A    between atoms: _534  and  _535
REMARK  212  A    between atoms: _538  and  _540
REMARK  213  A    between atoms: _540  and  _541
REMARK  214  A    between atoms: _540  and  _543
REMARK  215  A    between atoms: _543  and  _544
REMARK  216  A    between atoms: _547  and  _549
REMARK  217  A    between atoms: _549  and  _550
REMARK  218  A    between atoms: _549  and  _552
REMARK  219  A    between atoms: _552  and  _553
REMARK  220  A    between atoms: _553  and  _554
REMARK  221  A    between atoms: _554  and  _555
REMARK  222  A    between atoms: _555  and  _556
REMARK  223  A    between atoms: _560  and  _562
REMARK  224  A    between atoms: _562  and  _563
REMARK  225  A    between atoms: _562  and  _565
REMARK  226  A    between atoms: _565  and  _566
REMARK  227  A    between atoms: _571  and  _573
REMARK  228  A    between atoms: _573  and  _574
REMARK  229  A    between atoms: _573  and  _576
REMARK  230  A    between atoms: _576  and  _577
REMARK  231  A    between atoms: _577  and  _578
REMARK  232  A    between atoms: _578  and  _579
REMARK  233  A    between atoms: _579  and  _580
REMARK  234  A    between atoms: _584  and  _586
REMARK  235  A    between atoms: _586  and  _587
REMARK  236  A    between atoms: _586  and  _589
REMARK  237  A    between atoms: _589  and  _590
REMARK  238  A    between atoms: _600  and  _602
REMARK  239  A    between atoms: _602  and  _603
REMARK  240  A    between atoms: _602  and  _605
REMARK  241  A    between atoms: _605  and  _606
REMARK  242  A    between atoms: _606  and  _607
REMARK  243  A    between atoms: _610  and  _612
REMARK  244  A    between atoms: _612  and  _613
REMARK  245  A    between atoms: _616  and  _618
REMARK  246  A    between atoms: _618  and  _619
REMARK  247  A    between atoms: _622  and  _624
REMARK  248  A    between atoms: _624  and  _625
REMARK  249  A    between atoms: _624  and  _627
REMARK  250  A    between atoms: _627  and  _628
REMARK  251  A    between atoms: _633  and  _635
REMARK  252  A    between atoms: _635  and  _636
REMARK  253  A    between atoms: _635  and  _638
REMARK  254  A    between atoms: _641  and  _643
REMARK  255  A    between atoms: _643  and  _644
REMARK  256  A    between atoms: _647  and  _649
REMARK  257  A    between atoms: _649  and  _650
REMARK  258  A    between atoms: _649  and  _652
REMARK  259  A    between atoms: _652  and  _653
REMARK  260  A    between atoms: _653  and  _654
REMARK  261  A    between atoms: _659  and  _661
REMARK  262  A    between atoms: _661  and  _662
REMARK  263  A    between atoms: _661  and  _664
REMARK  264  A    between atoms: _664  and  _665
REMARK  265  A    between atoms: _668  and  _670
REMARK  266  A    between atoms: _670  and  _671
REMARK  267  A    between atoms: _670  and  _673
REMARK  268  A    between atoms: _673  and  _674
REMARK  269  A    between atoms: _674  and  _675
REMARK  270  A    between atoms: _675  and  _676
REMARK  271  A    between atoms: _685  and  _687
REMARK  272  A    between atoms: _687  and  _688
REMARK  273  A    between atoms: _687  and  _690
REMARK  274  A    between atoms: _690  and  _691
REMARK  275  A    between atoms: _696  and  _697
REMARK  276  A    between atoms: _699  and  _701
REMARK  277  A    between atoms: _701  and  _702
REMARK  278  A    between atoms: _701  and  _704
REMARK  279  A    between atoms: _704  and  _705
REMARK  280  A    between atoms: _708  and  _710
REMARK  281  A    between atoms: _710  and  _711
REMARK  282  A    between atoms: _710  and  _713
REMARK  283  A    between atoms: _713  and  _714
REMARK  284  A    between atoms: _717  and  _719
REMARK  285  A    between atoms: _719  and  _720
REMARK  286  A    between atoms: _719  and  _722
REMARK  287  A    between atoms: _722  and  _723
REMARK  288  A    between atoms: _724  and  _726
REMARK  289  A    between atoms: _726  and  _727
REMARK  290  A    between atoms: _726  and  _729
REMARK  291  A    between atoms: _732  and  _734
REMARK  292  A    between atoms: _734  and  _735
REMARK  293  A    between atoms: _734  and  _737
REMARK  294  A    between atoms: _737  and  _738
REMARK  295  A    between atoms: _738  and  _739
REMARK  296  A    between atoms: _742  and  _744
REMARK  297  A    between atoms: _744  and  _745
REMARK  298  A    between atoms: _744  and  _747
REMARK  299  A    between atoms: _747  and  _748
REMARK  300  A    between atoms: _758  and  _760
REMARK  301  A    between atoms: _760  and  _761
REMARK  302  A    between atoms: _760  and  _763
REMARK  303  A    between atoms: _763  and  _764
REMARK  304  A    between atoms: _767  and  _769
REMARK  305  A    between atoms: _769  and  _770
REMARK  306  A    between atoms: _769  and  _772
REMARK  307  A    between atoms: _772  and  _773
REMARK  308  A    between atoms: _773  and  _774
REMARK  309  A    between atoms: _774  and  _775
REMARK  310  A    between atoms: _784  and  _786
REMARK  311  A    between atoms: _786  and  _787
REMARK  312  A    between atoms: _786  and  _789
REMARK  313  A    between atoms: _789  and  _790
REMARK  314  A    between atoms: _795  and  _796
REMARK                            x       y       z     vdW  Elec       q    Type
REMARK                         _______ _______ _______ _____ _____    ______ ____
ROOT
ATOM      1  O   HOH     1      28.983  -8.507  38.315  0.00  0.00    +0.000 OA
ENDROOT
TORSDOF 0
REMARK  Name = ../refined-set-2016/3qfd/3qfd_pocket.pdb
REMARK  314 active torsions:
REMARK  status: ('A' for Active; 'I' for Inactive)
REMARK    1  A    between atoms: _1  and  _3
REMARK    2  A    between atoms: _3  and  _4
REMARK    3  A    between atoms: _3  and  _6
REMARK    4  A    between atoms: _6  and  _7
REMARK    5  A    between atoms: _7  and  _8
REMARK    6  A    between atoms: _10  and  _12
REMARK    7  A    between atoms: _12  and  _13
REMARK    8  A    between atoms: _12  and  _15
REMARK    9  A    between atoms: _15  and  _16
REMARK   10  A    between atoms: _16  and  _17
REMARK   11  A    between atoms: _17  and  _18
REMARK   12  A    between atoms: _27  and  _29
REMARK   13  A    between atoms: _29  and  _30
REMARK   14  A    between atoms: _29  and  _32
REMARK   15  A    between atoms: _32  and  _33
REMARK   16  A    between atoms: _38  and  _39
REMARK   17  A    between atoms: _41  and  _43
REMARK   18  A    between atoms: _43  and  _44
REMARK   19  A    between atoms: _43  and  _46
REMARK   20  A    between atoms: _46  and  _47
REMARK   21  A    between atoms: _53  and  _55
REMARK   22  A    between atoms: _55  and  _56
REMARK   23  A    between atoms: _55  and  _58
REMARK   24  A    between atoms: _58  and  _59
REMARK   25  A    between atoms: _65  and  _67
REMARK   26  A    between atoms: _67  and  _68
REMARK   27  A    between atoms: _71  and  _73
REMARK   28  A    between atoms: _73  and  _74
REMARK   29  A    between atoms: _73  and  _76
REMARK   30  A    between atoms: _79  and  _81
REMARK   31  A    between atoms: _81  and  _82
REMARK   32  A    between atoms: _84  and  _86
REMARK   33  A    between atoms: _86  and  _87
REMARK   34  A    between atoms: _86  and  _89
REMARK   35  A    between atoms: _92  and  _94
REMARK   36  A    between atoms: _94  and  _95
REMARK   37  A    between atoms: _94  and  _97
REMARK   38  A    between atoms: _97  and  _98
REMARK   39  A    between atoms: _104  and  _106
REMARK   40  A    between atoms: _106  and  _107
REMARK   41  A    between atoms: _106  and  _109
REMARK   42  A    between atoms: _112  and  _114
REMARK   43  A    between atoms: _114  and  _115
REMARK   44  A    between atoms: _114  and  _117
REMARK   45  A    between atoms: _117  and  _118
REMARK   46  A    between atoms: _118  and  _119
REMARK   47  A    between atoms: _121  and  _123
REMARK   48  A    between atoms: _123  and  _124
REMARK   49  A    between atoms: _123  and  _126
REMARK   50  A    between atoms: _126  and  _127
REMARK   51  A    between atoms: _130  and  _132
REMARK   52  A    between atoms: _132  and  _133
REMARK   53  A    between atoms: _132  and  _135
REMARK   54  A    between atoms: _135  and  _136
REMARK   55  A    between atoms: _136  and  _137
REMARK   56  A    between atoms: _140  and  _142
REMARK   57  A    between atoms: _142  and  _143
REMARK   58  A    between atoms: _142  and  _145
REMARK   59  A    between atoms: _145  and  _146
REMARK   60  A    between atoms: _151  and  _152
REMARK   61  A    between atoms: _154  and  _156
REMARK   62  A    between atoms: _156  and  _157
REMARK   63  A    between atoms: _159  and  _161
REMARK   64  A    between atoms: _161  and  _162
REMARK   65  A    between atoms: _161  and  _164
REMARK   66  A    between atoms: _164  and  _165
REMARK   67  A    between atoms: _165  and  _166
REMARK   68  A    between atoms: _169  and  _171
REMARK   69  A    between atoms: _171  and  _172
REMARK   70  A    between atoms: _171  and  _174
REMARK   71  A    between atoms: _174  and  _175
REMARK   72  A    between atoms: _178  and  _180
REMARK   73  A    between atoms: _180  and  _181
REMARK   74  A    between atoms: _180  and  _183
REMARK   75  A    between atoms: _183  and  _184
REMARK   76  A    between atoms: _184  and  _185
REMARK   77  A    between atoms: _185  and  _186
REMARK   78  A    between atoms: _195  and  _197
REMARK   79  A    between atoms: _197  and  _198
REMARK   80  A    between atoms: _197  and  _200
REMARK   81  A    between atoms: _200  and  _201
REMARK   82  A    between atoms: _201  and  _202
REMARK   83  A    between atoms: _202  and  _203
REMARK   84  A    between atoms: _203  and  _204
REMARK   85  A    between atoms: _208  and  _210
REMARK   86  A    between atoms: _210  and  _211
REMARK   87  A    between atoms: _210  and  _213
REMARK   88  A    between atoms: _216  and  _218
REMARK   89  A    between atoms: _218  and  _219
REMARK   90  A    between atoms: _222  and  _224
REMARK   91  A    between atoms: _224  and  _225
REMARK   92  A    between atoms: _224  and  _227
REMARK   93  A    between atoms: _227  and  _228
REMARK   94  A    between atoms: _233  and  _235
REMARK   95  A    between atoms: _235  and  _236
REMARK   96  A    between atoms: _235  and  _238
REMARK   97  A    between atoms: _238  and  _239
REMARK   98  A    between atoms: _241  and  _243
REMARK   99  A    between atoms: _243  and  _244
REMARK  100  A    between atoms: _243  and  _246
REMARK  101  A    between atoms: _246  and  _247
REMARK  102  A    between atoms: _247  and  _248
REMARK  103  A    between atoms: _253  and  _255
REMARK  104  A    between atoms: _255  and  _256
REMARK  105  A    between atoms: _255  and  _258
REMARK  106  A    between atoms: _258  and  _259
REMARK  107  A    between atoms: _262  and  _264
REMARK  108  A    between atoms: _264  and  _265
REMARK  109  A    between atoms: _264  and  _267
REMARK  110  A    between atoms: _267  and  _268
REMARK  111  A    between atoms: _273  and  _275
REMARK  112  A    between atoms: _275  and  _276
REMARK  113  A    between atoms: _275  and  _278
REMARK  114  A    between atoms: _278  and  _279
REMARK  115  A    between atoms: _279  and  _280
REMARK  116  A    between atoms: _280  and  _281
REMARK  117  A    between atoms: _290  and  _292
REMARK  118  A    between atoms: _292  and  _293
REMARK  119  A    between atoms: _292  and  _295
REMARK  120  A    between atoms: _298  and  _300
REMARK  121  A    between atoms: _300  and  _301
REMARK  122  A    between atoms: _300  and  _303
REMARK  123  A    between atoms: _303  and  _304
REMARK  124  A    between atoms: _307  and  _309
REMARK  125  A    between atoms: _309  and  _310
REMARK  126  A    between atoms: _309  and  _312
REMARK  127  A    between atoms: _312  and  _313
REMARK  128  A    between atoms: _316  and  _318
REMARK  129  A    between atoms: _318  and  _319
REMARK  130  A    between atoms: _321  and  _323
REMARK  131  A    between atoms: _323  and  _324
REMARK  132  A    between atoms: _323  and  _326
REMARK  133  A    between atoms: _326  and  _327
REMARK  134  A    between atoms: _330  and  _332
REMARK  135  A    between atoms: _332  and  _333
REMARK  136  A    between atoms: _332  and  _335
REMARK  137  A    between atoms: _335  and  _336
REMARK  138  A    between atoms: _339  and  _341
REMARK  139  A    between atoms: _341  and  _342
REMARK  140  A    between atoms: _341  and  _344
REMARK  141  A    between atoms: _344  and  _345
REMARK  142  A    between atoms: _345  and  _346
REMARK  143  A    between atoms: _346  and  _347
REMARK  144  A    between atoms: _356  and  _358
REMARK  145  A    between atoms: _358  and  _359
REMARK  146  A    between atoms: _358  and  _361
REMARK  147  A    between atoms: _361  and  _362
REMARK  148  A    between atoms: _367  and  _368
REMARK  149  A    between atoms: _370  and  _372
REMARK  150  A    between atoms: _372  and  _373
REMARK  151  A    between atoms: _372  and  _375
REMARK  152  A    between atoms: _378  and  _380
REMARK  153  A    between atoms: _380  and  _381
REMARK  154  A    between atoms: _380  and  _383
REMARK  155  A    between atoms: _383  and  _384
REMARK  156  A    between atoms: _384  and  _385
REMARK  157  A    between atoms: _385  and  _386
REMARK  158  A    between atoms: _395  and  _397
REMARK  159  A    between atoms: _397  and  _398
REMARK  160  A    between atoms: _397  and  _400
REMARK  161  A    between atoms: _400  and  _401
REMARK  162  A    between atoms: _406  and  _407
REMARK  163  A    between atoms: _409  and  _411
REMARK  164  A    between atoms: _411  and  _412
REMARK  165  A    between atoms: _414  and  _416
REMARK  166  A    between atoms: _416  and  _417
REMARK  167  A    between atoms: _416  and  _419
REMARK  168  A    between atoms: _419  and  _420
REMARK  169  A    between atoms: _420  and  _723
REMARK  170  A    between atoms: _421  and  _423
REMARK  171  A    between atoms: _423  and  _424
REMARK  172  A    between atoms: _423  and  _426
REMARK  173  A    between atoms: _426  and  _427
REMARK  174  A    between atoms: _432  and  _434
REMARK  175  A    between atoms: _434  and  _435
REMARK  176  A    between atoms: _434  and  _437
REMARK  177  A    between atoms: _437  and  _438
REMARK  178  A    between atoms: _443  and  _444
REMARK  179  A    between atoms: _446  and  _448
REMARK  180  A    between atoms: _448  and  _449
REMARK  181  A    between atoms: _452  and  _454
REMARK  182  A    between atoms: _454  and  _455
REMARK  183  A    between atoms: _454  and  _457
REMARK  184  A    between atoms: _457  and  _458
REMARK  185  A    between atoms: _463  and  _464
REMARK  186  A    between atoms: _466  and  _468
REMARK  187  A    between atoms: _468  and  _469
REMARK  188  A    between atoms: _468  and  _471
REMARK  189  A    between atoms: _471  and  _472
REMARK  190  A    between atoms: _477  and  _478
REMARK  191  A    between atoms: _480  and  _482
REMARK  192  A    between atoms: _482  and  _483
REMARK  193  A    between atoms: _482  and  _485
REMARK  194  A    between atoms: _485  and  _486
REMARK  195  A    between atoms: _489  and  _491
REMARK  196  A    between atoms: _491  and  _492
REMARK  197  A    between atoms: _491  and  _494
REMARK  198  A    between atoms: _494  and  _495
REMARK  199  A    between atoms: _505  and  _507
REMARK  200  A    between atoms: _507  and  _508
REMARK  201  A    between atoms: _511  and  _513
REMARK  202  A    between atoms: _513  and  _514
REMARK  203  A    between atoms: _517  and  _519
REMARK  204  A    between atoms: _519  and  _520
REMARK  205  A    between atoms: _519  and  _522
REMARK  206  A    between atoms: _522  and  _523
REMARK  207  A    between atoms: _523  and  _524
REMARK  208  A    between atoms: _529  and  _531
REMARK  209  A    between atoms: _531  and  _532
REMARK  210  A    between atoms: _531  and  _534
REMARK  211  A    between atoms: _534  and  _535
REMARK  212  A    between atoms: _538  and  _540
REMARK  213  A    between atoms: _540  and  _541
REMARK  214  A    between atoms: _540  and  _543
REMARK  215  A    between atoms: _543  and  _544
REMARK  216  A    between atoms: _547  and  _549
REMARK  217  A    between atoms: _549  and  _550
REMARK  218  A    between atoms: _549  and  _552
REMARK  219  A    between atoms: _552  and  _553
REMARK  220  A    between atoms: _553  and  _554
REMARK  221  A    between atoms: _554  and  _555
REMARK  222  A    between atoms: _555  and  _556
REMARK  223  A    between atoms: _560  and  _562
REMARK  224  A    between atoms: _562  and  _563
REMARK  225  A    between atoms: _562  and  _565
REMARK  226  A    between atoms: _565  and  _566
REMARK  227  A    between atoms: _571  and  _573
REMARK  228  A    between atoms: _573  and  _574
REMARK  229  A    between atoms: _573  and  _576
REMARK  230  A    between atoms: _576  and  _577
REMARK  231  A    between atoms: _577  and  _578
REMARK  232  A    between atoms: _578  and  _579
REMARK  233  A    between atoms: _579  and  _580
REMARK  234  A    between atoms: _584  and  _586
REMARK  235  A    between atoms: _586  and  _587
REMARK  236  A    between atoms: _586  and  _589
REMARK  237  A    between atoms: _589  and  _590
REMARK  238  A    between atoms: _600  and  _602
REMARK  239  A    between atoms: _602  and  _603
REMARK  240  A    between atoms: _602  and  _605
REMARK  241  A    between atoms: _605  and  _606
REMARK  242  A    between atoms: _606  and  _607
REMARK  243  A    between atoms: _610  and  _612
REMARK  244  A    between atoms: _612  and  _613
REMARK  245  A    between atoms: _616  and  _618
REMARK  246  A    between atoms: _618  and  _619
REMARK  247  A    between atoms: _622  and  _624
REMARK  248  A    between atoms: _624  and  _625
REMARK  249  A    between atoms: _624  and  _627
REMARK  250  A    between atoms: _627  and  _628
REMARK  251  A    between atoms: _633  and  _635
REMARK  252  A    between atoms: _635  and  _636
REMARK  253  A    between atoms: _635  and  _638
REMARK  254  A    between atoms: _641  and  _643
REMARK  255  A    between atoms: _643  and  _644
REMARK  256  A    between atoms: _647  and  _649
REMARK  257  A    between atoms: _649  and  _650
REMARK  258  A    between atoms: _649  and  _652
REMARK  259  A    between atoms: _652  and  _653
REMARK  260  A    between atoms: _653  and  _654
REMARK  261  A    between atoms: _659  and  _661
REMARK  262  A    between atoms: _661  and  _662
REMARK  263  A    between atoms: _661  and  _664
REMARK  264  A    between atoms: _664  and  _665
REMARK  265  A    between atoms: _668  and  _670
REMARK  266  A    between atoms: _670  and  _671
REMARK  267  A    between atoms: _670  and  _673
REMARK  268  A    between atoms: _673  and  _674
REMARK  269  A    between atoms: _674  and  _675
REMARK  270  A    between atoms: _675  and  _676
REMARK  271  A    between atoms: _685  and  _687
REMARK  272  A    between atoms: _687  and  _688
REMARK  273  A    between atoms: _687  and  _690
REMARK  274  A    between atoms: _690  and  _691
REMARK  275  A    between atoms: _696  and  _697
REMARK  276  A    between atoms: _699  and  _701
REMARK  277  A    between atoms: _701  and  _702
REMARK  278  A    between atoms: _701  and  _704
REMARK  279  A    between atoms: _704  and  _705
REMARK  280  A    between atoms: _708  and  _710
REMARK  281  A    between atoms: _710  and  _711
REMARK  282  A    between atoms: _710  and  _713
REMARK  283  A    between atoms: _713  and  _714
REMARK  284  A    between atoms: _717  and  _719
REMARK  285  A    between atoms: _719  and  _720
REMARK  286  A    between atoms: _719  and  _722
REMARK  287  A    between atoms: _722  and  _723
REMARK  288  A    between atoms: _724  and  _726
REMARK  289  A    between atoms: _726  and  _727
REMARK  290  A    between atoms: _726  and  _729
REMARK  291  A    between atoms: _732  and  _734
REMARK  292  A    between atoms: _734  and  _735
REMARK  293  A    between atoms: _734  and  _737
REMARK  294  A    between atoms: _737  and  _738
REMARK  295  A    between atoms: _738  and  _739
REMARK  296  A    between atoms: _742  and  _744
REMARK  297  A    between atoms: _744  and  _745
REMARK  298  A    between atoms: _744  and  _747
REMARK  299  A    between atoms: _747  and  _748
REMARK  300  A    between atoms: _758  and  _760
REMARK  301  A    between atoms: _760  and  _761
REMARK  302  A    between atoms: _760  and  _763
REMARK  303  A    between atoms: _763  and  _764
REMARK  304  A    between atoms: _767  and  _769
REMARK  305  A    between atoms: _769  and  _770
REMARK  306  A    between atoms: _769  and  _772
REMARK  307  A    between atoms: _772  and  _773
REMARK  308  A    between atoms: _773  and  _774
REMARK  309  A    between atoms: _774  and  _775
REMARK  310  A    between atoms: _784  and  _786
REMARK  311  A    between atoms: _786  and  _787
REMARK  312  A    between atoms: _786  and  _789
REMARK  313  A    between atoms: _789  and  _790
REMARK  314  A    between atoms: _795  and  _796
REMARK                            x       y       z     vdW  Elec       q    Type
REMARK                         _______ _______ _______ _____ _____    ______ ____
ROOT
ATOM      1  O   HOH     1      31.438  -1.680  44.112  0.00  0.00    +0.000 OA
ENDROOT
TORSDOF 0
REMARK  Name = ../refined-set-2016/3qfd/3qfd_pocket.pdb
REMARK  314 active torsions:
REMARK  status: ('A' for Active; 'I' for Inactive)
REMARK    1  A    between atoms: _1  and  _3
REMARK    2  A    between atoms: _3  and  _4
REMARK    3  A    between atoms: _3  and  _6
REMARK    4  A    between atoms: _6  and  _7
REMARK    5  A    between atoms: _7  and  _8
REMARK    6  A    between atoms: _10  and  _12
REMARK    7  A    between atoms: _12  and  _13
REMARK    8  A    between atoms: _12  and  _15
REMARK    9  A    between atoms: _15  and  _16
REMARK   10  A    between atoms: _16  and  _17
REMARK   11  A    between atoms: _17  and  _18
REMARK   12  A    between atoms: _27  and  _29
REMARK   13  A    between atoms: _29  and  _30
REMARK   14  A    between atoms: _29  and  _32
REMARK   15  A    between atoms: _32  and  _33
REMARK   16  A    between atoms: _38  and  _39
REMARK   17  A    between atoms: _41  and  _43
REMARK   18  A    between atoms: _43  and  _44
REMARK   19  A    between atoms: _43  and  _46
REMARK   20  A    between atoms: _46  and  _47
REMARK   21  A    between atoms: _53  and  _55
REMARK   22  A    between atoms: _55  and  _56
REMARK   23  A    between atoms: _55  and  _58
REMARK   24  A    between atoms: _58  and  _59
REMARK   25  A    between atoms: _65  and  _67
REMARK   26  A    between atoms: _67  and  _68
REMARK   27  A    between atoms: _71  and  _73
REMARK   28  A    between atoms: _73  and  _74
REMARK   29  A    between atoms: _73  and  _76
REMARK   30  A    between atoms: _79  and  _81
REMARK   31  A    between atoms: _81  and  _82
REMARK   32  A    between atoms: _84  and  _86
REMARK   33  A    between atoms: _86  and  _87
REMARK   34  A    between atoms: _86  and  _89
REMARK   35  A    between atoms: _92  and  _94
REMARK   36  A    between atoms: _94  and  _95
REMARK   37  A    between atoms: _94  and  _97
REMARK   38  A    between atoms: _97  and  _98
REMARK   39  A    between atoms: _104  and  _106
REMARK   40  A    between atoms: _106  and  _107
REMARK   41  A    between atoms: _106  and  _109
REMARK   42  A    between atoms: _112  and  _114
REMARK   43  A    between atoms: _114  and  _115
REMARK   44  A    between atoms: _114  and  _117
REMARK   45  A    between atoms: _117  and  _118
REMARK   46  A    between atoms: _118  and  _119
REMARK   47  A    between atoms: _121  and  _123
REMARK   48  A    between atoms: _123  and  _124
REMARK   49  A    between atoms: _123  and  _126
REMARK   50  A    between atoms: _126  and  _127
REMARK   51  A    between atoms: _130  and  _132
REMARK   52  A    between atoms: _132  and  _133
REMARK   53  A    between atoms: _132  and  _135
REMARK   54  A    between atoms: _135  and  _136
REMARK   55  A    between atoms: _136  and  _137
REMARK   56  A    between atoms: _140  and  _142
REMARK   57  A    between atoms: _142  and  _143
REMARK   58  A    between atoms: _142  and  _145
REMARK   59  A    between atoms: _145  and  _146
REMARK   60  A    between atoms: _151  and  _152
REMARK   61  A    between atoms: _154  and  _156
REMARK   62  A    between atoms: _156  and  _157
REMARK   63  A    between atoms: _159  and  _161
REMARK   64  A    between atoms: _161  and  _162
REMARK   65  A    between atoms: _161  and  _164
REMARK   66  A    between atoms: _164  and  _165
REMARK   67  A    between atoms: _165  and  _166
REMARK   68  A    between atoms: _169  and  _171
REMARK   69  A    between atoms: _171  and  _172
REMARK   70  A    between atoms: _171  and  _174
REMARK   71  A    between atoms: _174  and  _175
REMARK   72  A    between atoms: _178  and  _180
REMARK   73  A    between atoms: _180  and  _181
REMARK   74  A    between atoms: _180  and  _183
REMARK   75  A    between atoms: _183  and  _184
REMARK   76  A    between atoms: _184  and  _185
REMARK   77  A    between atoms: _185  and  _186
REMARK   78  A    between atoms: _195  and  _197
REMARK   79  A    between atoms: _197  and  _198
REMARK   80  A    between atoms: _197  and  _200
REMARK   81  A    between atoms: _200  and  _201
REMARK   82  A    between atoms: _201  and  _202
REMARK   83  A    between atoms: _202  and  _203
REMARK   84  A    between atoms: _203  and  _204
REMARK   85  A    between atoms: _208  and  _210
REMARK   86  A    between atoms: _210  and  _211
REMARK   87  A    between atoms: _210  and  _213
REMARK   88  A    between atoms: _216  and  _218
REMARK   89  A    between atoms: _218  and  _219
REMARK   90  A    between atoms: _222  and  _224
REMARK   91  A    between atoms: _224  and  _225
REMARK   92  A    between atoms: _224  and  _227
REMARK   93  A    between atoms: _227  and  _228
REMARK   94  A    between atoms: _233  and  _235
REMARK   95  A    between atoms: _235  and  _236
REMARK   96  A    between atoms: _235  and  _238
REMARK   97  A    between atoms: _238  and  _239
REMARK   98  A    between atoms: _241  and  _243
REMARK   99  A    between atoms: _243  and  _244
REMARK  100  A    between atoms: _243  and  _246
REMARK  101  A    between atoms: _246  and  _247
REMARK  102  A    between atoms: _247  and  _248
REMARK  103  A    between atoms: _253  and  _255
REMARK  104  A    between atoms: _255  and  _256
REMARK  105  A    between atoms: _255  and  _258
REMARK  106  A    between atoms: _258  and  _259
REMARK  107  A    between atoms: _262  and  _264
REMARK  108  A    between atoms: _264  and  _265
REMARK  109  A    between atoms: _264  and  _267
REMARK  110  A    between atoms: _267  and  _268
REMARK  111  A    between atoms: _273  and  _275
REMARK  112  A    between atoms: _275  and  _276
REMARK  113  A    between atoms: _275  and  _278
REMARK  114  A    between atoms: _278  and  _279
REMARK  115  A    between atoms: _279  and  _280
REMARK  116  A    between atoms: _280  and  _281
REMARK  117  A    between atoms: _290  and  _292
REMARK  118  A    between atoms: _292  and  _293
REMARK  119  A    between atoms: _292  and  _295
REMARK  120  A    between atoms: _298  and  _300
REMARK  121  A    between atoms: _300  and  _301
REMARK  122  A    between atoms: _300  and  _303
REMARK  123  A    between atoms: _303  and  _304
REMARK  124  A    between atoms: _307  and  _309
REMARK  125  A    between atoms: _309  and  _310
REMARK  126  A    between atoms: _309  and  _312
REMARK  127  A    between atoms: _312  and  _313
REMARK  128  A    between atoms: _316  and  _318
REMARK  129  A    between atoms: _318  and  _319
REMARK  130  A    between atoms: _321  and  _323
REMARK  131  A    between atoms: _323  and  _324
REMARK  132  A    between atoms: _323  and  _326
REMARK  133  A    between atoms: _326  and  _327
REMARK  134  A    between atoms: _330  and  _332
REMARK  135  A    between atoms: _332  and  _333
REMARK  136  A    between atoms: _332  and  _335
REMARK  137  A    between atoms: _335  and  _336
REMARK  138  A    between atoms: _339  and  _341
REMARK  139  A    between atoms: _341  and  _342
REMARK  140  A    between atoms: _341  and  _344
REMARK  141  A    between atoms: _344  and  _345
REMARK  142  A    between atoms: _345  and  _346
REMARK  143  A    between atoms: _346  and  _347
REMARK  144  A    between atoms: _356  and  _358
REMARK  145  A    between atoms: _358  and  _359
REMARK  146  A    between atoms: _358  and  _361
REMARK  147  A    between atoms: _361  and  _362
REMARK  148  A    between atoms: _367  and  _368
REMARK  149  A    between atoms: _370  and  _372
REMARK  150  A    between atoms: _372  and  _373
REMARK  151  A    between atoms: _372  and  _375
REMARK  152  A    between atoms: _378  and  _380
REMARK  153  A    between atoms: _380  and  _381
REMARK  154  A    between atoms: _380  and  _383
REMARK  155  A    between atoms: _383  and  _384
REMARK  156  A    between atoms: _384  and  _385
REMARK  157  A    between atoms: _385  and  _386
REMARK  158  A    between atoms: _395  and  _397
REMARK  159  A    between atoms: _397  and  _398
REMARK  160  A    between atoms: _397  and  _400
REMARK  161  A    between atoms: _400  and  _401
REMARK  162  A    between atoms: _406  and  _407
REMARK  163  A    between atoms: _409  and  _411
REMARK  164  A    between atoms: _411  and  _412
REMARK  165  A    between atoms: _414  and  _416
REMARK  166  A    between atoms: _416  and  _417
REMARK  167  A    between atoms: _416  and  _419
REMARK  168  A    between atoms: _419  and  _420
REMARK  169  A    between atoms: _420  and  _723
REMARK  170  A    between atoms: _421  and  _423
REMARK  171  A    between atoms: _423  and  _424
REMARK  172  A    between atoms: _423  and  _426
REMARK  173  A    between atoms: _426  and  _427
REMARK  174  A    between atoms: _432  and  _434
REMARK  175  A    between atoms: _434  and  _435
REMARK  176  A    between atoms: _434  and  _437
REMARK  177  A    between atoms: _437  and  _438
REMARK  178  A    between atoms: _443  and  _444
REMARK  179  A    between atoms: _446  and  _448
REMARK  180  A    between atoms: _448  and  _449
REMARK  181  A    between atoms: _452  and  _454
REMARK  182  A    between atoms: _454  and  _455
REMARK  183  A    between atoms: _454  and  _457
REMARK  184  A    between atoms: _457  and  _458
REMARK  185  A    between atoms: _463  and  _464
REMARK  186  A    between atoms: _466  and  _468
REMARK  187  A    between atoms: _468  and  _469
REMARK  188  A    between atoms: _468  and  _471
REMARK  189  A    between atoms: _471  and  _472
REMARK  190  A    between atoms: _477  and  _478
REMARK  191  A    between atoms: _480  and  _482
REMARK  192  A    between atoms: _482  and  _483
REMARK  193  A    between atoms: _482  and  _485
REMARK  194  A    between atoms: _485  and  _486
REMARK  195  A    between atoms: _489  and  _491
REMARK  196  A    between atoms: _491  and  _492
REMARK  197  A    between atoms: _491  and  _494
REMARK  198  A    between atoms: _494  and  _495
REMARK  199  A    between atoms: _505  and  _507
REMARK  200  A    between atoms: _507  and  _508
REMARK  201  A    between atoms: _511  and  _513
REMARK  202  A    between atoms: _513  and  _514
REMARK  203  A    between atoms: _517  and  _519
REMARK  204  A    between atoms: _519  and  _520
REMARK  205  A    between atoms: _519  and  _522
REMARK  206  A    between atoms: _522  and  _523
REMARK  207  A    between atoms: _523  and  _524
REMARK  208  A    between atoms: _529  and  _531
REMARK  209  A    between atoms: _531  and  _532
REMARK  210  A    between atoms: _531  and  _534
REMARK  211  A    between atoms: _534  and  _535
REMARK  212  A    between atoms: _538  and  _540
REMARK  213  A    between atoms: _540  and  _541
REMARK  214  A    between atoms: _540  and  _543
REMARK  215  A    between atoms: _543  and  _544
REMARK  216  A    between atoms: _547  and  _549
REMARK  217  A    between atoms: _549  and  _550
REMARK  218  A    between atoms: _549  and  _552
REMARK  219  A    between atoms: _552  and  _553
REMARK  220  A    between atoms: _553  and  _554
REMARK  221  A    between atoms: _554  and  _555
REMARK  222  A    between atoms: _555  and  _556
REMARK  223  A    between atoms: _560  and  _562
REMARK  224  A    between atoms: _562  and  _563
REMARK  225  A    between atoms: _562  and  _565
REMARK  226  A    between atoms: _565  and  _566
REMARK  227  A    between atoms: _571  and  _573
REMARK  228  A    between atoms: _573  and  _574
REMARK  229  A    between atoms: _573  and  _576
REMARK  230  A    between atoms: _576  and  _577
REMARK  231  A    between atoms: _577  and  _578
REMARK  232  A    between atoms: _578  and  _579
REMARK  233  A    between atoms: _579  and  _580
REMARK  234  A    between atoms: _584  and  _586
REMARK  235  A    between atoms: _586  and  _587
REMARK  236  A    between atoms: _586  and  _589
REMARK  237  A    between atoms: _589  and  _590
REMARK  238  A    between atoms: _600  and  _602
REMARK  239  A    between atoms: _602  and  _603
REMARK  240  A    between atoms: _602  and  _605
REMARK  241  A    between atoms: _605  and  _606
REMARK  242  A    between atoms: _606  and  _607
REMARK  243  A    between atoms: _610  and  _612
REMARK  244  A    between atoms: _612  and  _613
REMARK  245  A    between atoms: _616  and  _618
REMARK  246  A    between atoms: _618  and  _619
REMARK  247  A    between atoms: _622  and  _624
REMARK  248  A    between atoms: _624  and  _625
REMARK  249  A    between atoms: _624  and  _627
REMARK  250  A    between atoms: _627  and  _628
REMARK  251  A    between atoms: _633  and  _635
REMARK  252  A    between atoms: _635  and  _636
REMARK  253  A    between atoms: _635  and  _638
REMARK  254  A    between atoms: _641  and  _643
REMARK  255  A    between atoms: _643  and  _644
REMARK  256  A    between atoms: _647  and  _649
REMARK  257  A    between atoms: _649  and  _650
REMARK  258  A    between atoms: _649  and  _652
REMARK  259  A    between atoms: _652  and  _653
REMARK  260  A    between atoms: _653  and  _654
REMARK  261  A    between atoms: _659  and  _661
REMARK  262  A    between atoms: _661  and  _662
REMARK  263  A    between atoms: _661  and  _664
REMARK  264  A    between atoms: _664  and  _665
REMARK  265  A    between atoms: _668  and  _670
REMARK  266  A    between atoms: _670  and  _671
REMARK  267  A    between atoms: _670  and  _673
REMARK  268  A    between atoms: _673  and  _674
REMARK  269  A    between atoms: _674  and  _675
REMARK  270  A    between atoms: _675  and  _676
REMARK  271  A    between atoms: _685  and  _687
REMARK  272  A    between atoms: _687  and  _688
REMARK  273  A    between atoms: _687  and  _690
REMARK  274  A    between atoms: _690  and  _691
REMARK  275  A    between atoms: _696  and  _697
REMARK  276  A    between atoms: _699  and  _701
REMARK  277  A    between atoms: _701  and  _702
REMARK  278  A    between atoms: _701  and  _704
REMARK  279  A    between atoms: _704  and  _705
REMARK  280  A    between atoms: _708  and  _710
REMARK  281  A    between atoms: _710  and  _711
REMARK  282  A    between atoms: _710  and  _713
REMARK  283  A    between atoms: _713  and  _714
REMARK  284  A    between atoms: _717  and  _719
REMARK  285  A    between atoms: _719  and  _720
REMARK  286  A    between atoms: _719  and  _722
REMARK  287  A    between atoms: _722  and  _723
REMARK  288  A    between atoms: _724  and  _726
REMARK  289  A    between atoms: _726  and  _727
REMARK  290  A    between atoms: _726  and  _729
REMARK  291  A    between atoms: _732  and  _734
REMARK  292  A    between atoms: _734  and  _735
REMARK  293  A    between atoms: _734  and  _737
REMARK  294  A    between atoms: _737  and  _738
REMARK  295  A    between atoms: _738  and  _739
REMARK  296  A    between atoms: _742  and  _744
REMARK  297  A    between atoms: _744  and  _745
REMARK  298  A    between atoms: _744  and  _747
REMARK  299  A    between atoms: _747  and  _748
REMARK  300  A    between atoms: _758  and  _760
REMARK  301  A    between atoms: _760  and  _761
REMARK  302  A    between atoms: _760  and  _763
REMARK  303  A    between atoms: _763  and  _764
REMARK  304  A    between atoms: _767  and  _769
REMARK  305  A    between atoms: _769  and  _770
REMARK  306  A    between atoms: _769  and  _772
REMARK  307  A    between atoms: _772  and  _773
REMARK  308  A    between atoms: _773  and  _774
REMARK  309  A    between atoms: _774  and  _775
REMARK  310  A    between atoms: _784  and  _786
REMARK  311  A    between atoms: _786  and  _787
REMARK  312  A    between atoms: _786  and  _789
REMARK  313  A    between atoms: _789  and  _790
REMARK  314  A    between atoms: _795  and  _796
REMARK                            x       y       z     vdW  Elec       q    Type
REMARK                         _______ _______ _______ _____ _____    ______ ____
ROOT
ATOM      1  O   HOH     1      33.047  -0.571  31.687  0.00  0.00    +0.000 OA
ENDROOT
TORSDOF 0
REMARK  Name = ../refined-set-2016/3qfd/3qfd_pocket.pdb
REMARK  314 active torsions:
REMARK  status: ('A' for Active; 'I' for Inactive)
REMARK    1  A    between atoms: _1  and  _3
REMARK    2  A    between atoms: _3  and  _4
REMARK    3  A    between atoms: _3  and  _6
REMARK    4  A    between atoms: _6  and  _7
REMARK    5  A    between atoms: _7  and  _8
REMARK    6  A    between atoms: _10  and  _12
REMARK    7  A    between atoms: _12  and  _13
REMARK    8  A    between atoms: _12  and  _15
REMARK    9  A    between atoms: _15  and  _16
REMARK   10  A    between atoms: _16  and  _17
REMARK   11  A    between atoms: _17  and  _18
REMARK   12  A    between atoms: _27  and  _29
REMARK   13  A    between atoms: _29  and  _30
REMARK   14  A    between atoms: _29  and  _32
REMARK   15  A    between atoms: _32  and  _33
REMARK   16  A    between atoms: _38  and  _39
REMARK   17  A    between atoms: _41  and  _43
REMARK   18  A    between atoms: _43  and  _44
REMARK   19  A    between atoms: _43  and  _46
REMARK   20  A    between atoms: _46  and  _47
REMARK   21  A    between atoms: _53  and  _55
REMARK   22  A    between atoms: _55  and  _56
REMARK   23  A    between atoms: _55  and  _58
REMARK   24  A    between atoms: _58  and  _59
REMARK   25  A    between atoms: _65  and  _67
REMARK   26  A    between atoms: _67  and  _68
REMARK   27  A    between atoms: _71  and  _73
REMARK   28  A    between atoms: _73  and  _74
REMARK   29  A    between atoms: _73  and  _76
REMARK   30  A    between atoms: _79  and  _81
REMARK   31  A    between atoms: _81  and  _82
REMARK   32  A    between atoms: _84  and  _86
REMARK   33  A    between atoms: _86  and  _87
REMARK   34  A    between atoms: _86  and  _89
REMARK   35  A    between atoms: _92  and  _94
REMARK   36  A    between atoms: _94  and  _95
REMARK   37  A    between atoms: _94  and  _97
REMARK   38  A    between atoms: _97  and  _98
REMARK   39  A    between atoms: _104  and  _106
REMARK   40  A    between atoms: _106  and  _107
REMARK   41  A    between atoms: _106  and  _109
REMARK   42  A    between atoms: _112  and  _114
REMARK   43  A    between atoms: _114  and  _115
REMARK   44  A    between atoms: _114  and  _117
REMARK   45  A    between atoms: _117  and  _118
REMARK   46  A    between atoms: _118  and  _119
REMARK   47  A    between atoms: _121  and  _123
REMARK   48  A    between atoms: _123  and  _124
REMARK   49  A    between atoms: _123  and  _126
REMARK   50  A    between atoms: _126  and  _127
REMARK   51  A    between atoms: _130  and  _132
REMARK   52  A    between atoms: _132  and  _133
REMARK   53  A    between atoms: _132  and  _135
REMARK   54  A    between atoms: _135  and  _136
REMARK   55  A    between atoms: _136  and  _137
REMARK   56  A    between atoms: _140  and  _142
REMARK   57  A    between atoms: _142  and  _143
REMARK   58  A    between atoms: _142  and  _145
REMARK   59  A    between atoms: _145  and  _146
REMARK   60  A    between atoms: _151  and  _152
REMARK   61  A    between atoms: _154  and  _156
REMARK   62  A    between atoms: _156  and  _157
REMARK   63  A    between atoms: _159  and  _161
REMARK   64  A    between atoms: _161  and  _162
REMARK   65  A    between atoms: _161  and  _164
REMARK   66  A    between atoms: _164  and  _165
REMARK   67  A    between atoms: _165  and  _166
REMARK   68  A    between atoms: _169  and  _171
REMARK   69  A    between atoms: _171  and  _172
REMARK   70  A    between atoms: _171  and  _174
REMARK   71  A    between atoms: _174  and  _175
REMARK   72  A    between atoms: _178  and  _180
REMARK   73  A    between atoms: _180  and  _181
REMARK   74  A    between atoms: _180  and  _183
REMARK   75  A    between atoms: _183  and  _184
REMARK   76  A    between atoms: _184  and  _185
REMARK   77  A    between atoms: _185  and  _186
REMARK   78  A    between atoms: _195  and  _197
REMARK   79  A    between atoms: _197  and  _198
REMARK   80  A    between atoms: _197  and  _200
REMARK   81  A    between atoms: _200  and  _201
REMARK   82  A    between atoms: _201  and  _202
REMARK   83  A    between atoms: _202  and  _203
REMARK   84  A    between atoms: _203  and  _204
REMARK   85  A    between atoms: _208  and  _210
REMARK   86  A    between atoms: _210  and  _211
REMARK   87  A    between atoms: _210  and  _213
REMARK   88  A    between atoms: _216  and  _218
REMARK   89  A    between atoms: _218  and  _219
REMARK   90  A    between atoms: _222  and  _224
REMARK   91  A    between atoms: _224  and  _225
REMARK   92  A    between atoms: _224  and  _227
REMARK   93  A    between atoms: _227  and  _228
REMARK   94  A    between atoms: _233  and  _235
REMARK   95  A    between atoms: _235  and  _236
REMARK   96  A    between atoms: _235  and  _238
REMARK   97  A    between atoms: _238  and  _239
REMARK   98  A    between atoms: _241  and  _243
REMARK   99  A    between atoms: _243  and  _244
REMARK  100  A    between atoms: _243  and  _246
REMARK  101  A    between atoms: _246  and  _247
REMARK  102  A    between atoms: _247  and  _248
REMARK  103  A    between atoms: _253  and  _255
REMARK  104  A    between atoms: _255  and  _256
REMARK  105  A    between atoms: _255  and  _258
REMARK  106  A    between atoms: _258  and  _259
REMARK  107  A    between atoms: _262  and  _264
REMARK  108  A    between atoms: _264  and  _265
REMARK  109  A    between atoms: _264  and  _267
REMARK  110  A    between atoms: _267  and  _268
REMARK  111  A    between atoms: _273  and  _275
REMARK  112  A    between atoms: _275  and  _276
REMARK  113  A    between atoms: _275  and  _278
REMARK  114  A    between atoms: _278  and  _279
REMARK  115  A    between atoms: _279  and  _280
REMARK  116  A    between atoms: _280  and  _281
REMARK  117  A    between atoms: _290  and  _292
REMARK  118  A    between atoms: _292  and  _293
REMARK  119  A    between atoms: _292  and  _295
REMARK  120  A    between atoms: _298  and  _300
REMARK  121  A    between atoms: _300  and  _301
REMARK  122  A    between atoms: _300  and  _303
REMARK  123  A    between atoms: _303  and  _304
REMARK  124  A    between atoms: _307  and  _309
REMARK  125  A    between atoms: _309  and  _310
REMARK  126  A    between atoms: _309  and  _312
REMARK  127  A    between atoms: _312  and  _313
REMARK  128  A    between atoms: _316  and  _318
REMARK  129  A    between atoms: _318  and  _319
REMARK  130  A    between atoms: _321  and  _323
REMARK  131  A    between atoms: _323  and  _324
REMARK  132  A    between atoms: _323  and  _326
REMARK  133  A    between atoms: _326  and  _327
REMARK  134  A    between atoms: _330  and  _332
REMARK  135  A    between atoms: _332  and  _333
REMARK  136  A    between atoms: _332  and  _335
REMARK  137  A    between atoms: _335  and  _336
REMARK  138  A    between atoms: _339  and  _341
REMARK  139  A    between atoms: _341  and  _342
REMARK  140  A    between atoms: _341  and  _344
REMARK  141  A    between atoms: _344  and  _345
REMARK  142  A    between atoms: _345  and  _346
REMARK  143  A    between atoms: _346  and  _347
REMARK  144  A    between atoms: _356  and  _358
REMARK  145  A    between atoms: _358  and  _359
REMARK  146  A    between atoms: _358  and  _361
REMARK  147  A    between atoms: _361  and  _362
REMARK  148  A    between atoms: _367  and  _368
REMARK  149  A    between atoms: _370  and  _372
REMARK  150  A    between atoms: _372  and  _373
REMARK  151  A    between atoms: _372  and  _375
REMARK  152  A    between atoms: _378  and  _380
REMARK  153  A    between atoms: _380  and  _381
REMARK  154  A    between atoms: _380  and  _383
REMARK  155  A    between atoms: _383  and  _384
REMARK  156  A    between atoms: _384  and  _385
REMARK  157  A    between atoms: _385  and  _386
REMARK  158  A    between atoms: _395  and  _397
REMARK  159  A    between atoms: _397  and  _398
REMARK  160  A    between atoms: _397  and  _400
REMARK  161  A    between atoms: _400  and  _401
REMARK  162  A    between atoms: _406  and  _407
REMARK  163  A    between atoms: _409  and  _411
REMARK  164  A    between atoms: _411  and  _412
REMARK  165  A    between atoms: _414  and  _416
REMARK  166  A    between atoms: _416  and  _417
REMARK  167  A    between atoms: _416  and  _419
REMARK  168  A    between atoms: _419  and  _420
REMARK  169  A    between atoms: _420  and  _723
REMARK  170  A    between atoms: _421  and  _423
REMARK  171  A    between atoms: _423  and  _424
REMARK  172  A    between atoms: _423  and  _426
REMARK  173  A    between atoms: _426  and  _427
REMARK  174  A    between atoms: _432  and  _434
REMARK  175  A    between atoms: _434  and  _435
REMARK  176  A    between atoms: _434  and  _437
REMARK  177  A    between atoms: _437  and  _438
REMARK  178  A    between atoms: _443  and  _444
REMARK  179  A    between atoms: _446  and  _448
REMARK  180  A    between atoms: _448  and  _449
REMARK  181  A    between atoms: _452  and  _454
REMARK  182  A    between atoms: _454  and  _455
REMARK  183  A    between atoms: _454  and  _457
REMARK  184  A    between atoms: _457  and  _458
REMARK  185  A    between atoms: _463  and  _464
REMARK  186  A    between atoms: _466  and  _468
REMARK  187  A    between atoms: _468  and  _469
REMARK  188  A    between atoms: _468  and  _471
REMARK  189  A    between atoms: _471  and  _472
REMARK  190  A    between atoms: _477  and  _478
REMARK  191  A    between atoms: _480  and  _482
REMARK  192  A    between atoms: _482  and  _483
REMARK  193  A    between atoms: _482  and  _485
REMARK  194  A    between atoms: _485  and  _486
REMARK  195  A    between atoms: _489  and  _491
REMARK  196  A    between atoms: _491  and  _492
REMARK  197  A    between atoms: _491  and  _494
REMARK  198  A    between atoms: _494  and  _495
REMARK  199  A    between atoms: _505  and  _507
REMARK  200  A    between atoms: _507  and  _508
REMARK  201  A    between atoms: _511  and  _513
REMARK  202  A    between atoms: _513  and  _514
REMARK  203  A    between atoms: _517  and  _519
REMARK  204  A    between atoms: _519  and  _520
REMARK  205  A    between atoms: _519  and  _522
REMARK  206  A    between atoms: _522  and  _523
REMARK  207  A    between atoms: _523  and  _524
REMARK  208  A    between atoms: _529  and  _531
REMARK  209  A    between atoms: _531  and  _532
REMARK  210  A    between atoms: _531  and  _534
REMARK  211  A    between atoms: _534  and  _535
REMARK  212  A    between atoms: _538  and  _540
REMARK  213  A    between atoms: _540  and  _541
REMARK  214  A    between atoms: _540  and  _543
REMARK  215  A    between atoms: _543  and  _544
REMARK  216  A    between atoms: _547  and  _549
REMARK  217  A    between atoms: _549  and  _550
REMARK  218  A    between atoms: _549  and  _552
REMARK  219  A    between atoms: _552  and  _553
REMARK  220  A    between atoms: _553  and  _554
REMARK  221  A    between atoms: _554  and  _555
REMARK  222  A    between atoms: _555  and  _556
REMARK  223  A    between atoms: _560  and  _562
REMARK  224  A    between atoms: _562  and  _563
REMARK  225  A    between atoms: _562  and  _565
REMARK  226  A    between atoms: _565  and  _566
REMARK  227  A    between atoms: _571  and  _573
REMARK  228  A    between atoms: _573  and  _574
REMARK  229  A    between atoms: _573  and  _576
REMARK  230  A    between atoms: _576  and  _577
REMARK  231  A    between atoms: _577  and  _578
REMARK  232  A    between atoms: _578  and  _579
REMARK  233  A    between atoms: _579  and  _580
REMARK  234  A    between atoms: _584  and  _586
REMARK  235  A    between atoms: _586  and  _587
REMARK  236  A    between atoms: _586  and  _589
REMARK  237  A    between atoms: _589  and  _590
REMARK  238  A    between atoms: _600  and  _602
REMARK  239  A    between atoms: _602  and  _603
REMARK  240  A    between atoms: _602  and  _605
REMARK  241  A    between atoms: _605  and  _606
REMARK  242  A    between atoms: _606  and  _607
REMARK  243  A    between atoms: _610  and  _612
REMARK  244  A    between atoms: _612  and  _613
REMARK  245  A    between atoms: _616  and  _618
REMARK  246  A    between atoms: _618  and  _619
REMARK  247  A    between atoms: _622  and  _624
REMARK  248  A    between atoms: _624  and  _625
REMARK  249  A    between atoms: _624  and  _627
REMARK  250  A    between atoms: _627  and  _628
REMARK  251  A    between atoms: _633  and  _635
REMARK  252  A    between atoms: _635  and  _636
REMARK  253  A    between atoms: _635  and  _638
REMARK  254  A    between atoms: _641  and  _643
REMARK  255  A    between atoms: _643  and  _644
REMARK  256  A    between atoms: _647  and  _649
REMARK  257  A    between atoms: _649  and  _650
REMARK  258  A    between atoms: _649  and  _652
REMARK  259  A    between atoms: _652  and  _653
REMARK  260  A    between atoms: _653  and  _654
REMARK  261  A    between atoms: _659  and  _661
REMARK  262  A    between atoms: _661  and  _662
REMARK  263  A    between atoms: _661  and  _664
REMARK  264  A    between atoms: _664  and  _665
REMARK  265  A    between atoms: _668  and  _670
REMARK  266  A    between atoms: _670  and  _671
REMARK  267  A    between atoms: _670  and  _673
REMARK  268  A    between atoms: _673  and  _674
REMARK  269  A    between atoms: _674  and  _675
REMARK  270  A    between atoms: _675  and  _676
REMARK  271  A    between atoms: _685  and  _687
REMARK  272  A    between atoms: _687  and  _688
REMARK  273  A    between atoms: _687  and  _690
REMARK  274  A    between atoms: _690  and  _691
REMARK  275  A    between atoms: _696  and  _697
REMARK  276  A    between atoms: _699  and  _701
REMARK  277  A    between atoms: _701  and  _702
REMARK  278  A    between atoms: _701  and  _704
REMARK  279  A    between atoms: _704  and  _705
REMARK  280  A    between atoms: _708  and  _710
REMARK  281  A    between atoms: _710  and  _711
REMARK  282  A    between atoms: _710  and  _713
REMARK  283  A    between atoms: _713  and  _714
REMARK  284  A    between atoms: _717  and  _719
REMARK  285  A    between atoms: _719  and  _720
REMARK  286  A    between atoms: _719  and  _722
REMARK  287  A    between atoms: _722  and  _723
REMARK  288  A    between atoms: _724  and  _726
REMARK  289  A    between atoms: _726  and  _727
REMARK  290  A    between atoms: _726  and  _729
REMARK  291  A    between atoms: _732  and  _734
REMARK  292  A    between atoms: _734  and  _735
REMARK  293  A    between atoms: _734  and  _737
REMARK  294  A    between atoms: _737  and  _738
REMARK  295  A    between atoms: _738  and  _739
REMARK  296  A    between atoms: _742  and  _744
REMARK  297  A    between atoms: _744  and  _745
REMARK  298  A    between atoms: _744  and  _747
REMARK  299  A    between atoms: _747  and  _748
REMARK  300  A    between atoms: _758  and  _760
REMARK  301  A    between atoms: _760  and  _761
REMARK  302  A    between atoms: _760  and  _763
REMARK  303  A    between atoms: _763  and  _764
REMARK  304  A    between atoms: _767  and  _769
REMARK  305  A    between atoms: _769  and  _770
REMARK  306  A    between atoms: _769  and  _772
REMARK  307  A    between atoms: _772  and  _773
REMARK  308  A    between atoms: _773  and  _774
REMARK  309  A    between atoms: _774  and  _775
REMARK  310  A    between atoms: _784  and  _786
REMARK  311  A    between atoms: _786  and  _787
REMARK  312  A    between atoms: _786  and  _789
REMARK  313  A    between atoms: _789  and  _790
REMARK  314  A    between atoms: _795  and  _796
REMARK                            x       y       z     vdW  Elec       q    Type
REMARK                         _______ _______ _______ _____ _____    ______ ____
ROOT
ATOM      1  O   HOH     1      32.276  -2.536  40.282  0.00  0.00    +0.000 OA
ENDROOT
TORSDOF 0
REMARK  Name = ../refined-set-2016/3qfd/3qfd_pocket.pdb
REMARK  314 active torsions:
REMARK  status: ('A' for Active; 'I' for Inactive)
REMARK    1  A    between atoms: _1  and  _3
REMARK    2  A    between atoms: _3  and  _4
REMARK    3  A    between atoms: _3  and  _6
REMARK    4  A    between atoms: _6  and  _7
REMARK    5  A    between atoms: _7  and  _8
REMARK    6  A    between atoms: _10  and  _12
REMARK    7  A    between atoms: _12  and  _13
REMARK    8  A    between atoms: _12  and  _15
REMARK    9  A    between atoms: _15  and  _16
REMARK   10  A    between atoms: _16  and  _17
REMARK   11  A    between atoms: _17  and  _18
REMARK   12  A    between atoms: _27  and  _29
REMARK   13  A    between atoms: _29  and  _30
REMARK   14  A    between atoms: _29  and  _32
REMARK   15  A    between atoms: _32  and  _33
REMARK   16  A    between atoms: _38  and  _39
REMARK   17  A    between atoms: _41  and  _43
REMARK   18  A    between atoms: _43  and  _44
REMARK   19  A    between atoms: _43  and  _46
REMARK   20  A    between atoms: _46  and  _47
REMARK   21  A    between atoms: _53  and  _55
REMARK   22  A    between atoms: _55  and  _56
REMARK   23  A    between atoms: _55  and  _58
REMARK   24  A    between atoms: _58  and  _59
REMARK   25  A    between atoms: _65  and  _67
REMARK   26  A    between atoms: _67  and  _68
REMARK   27  A    between atoms: _71  and  _73
REMARK   28  A    between atoms: _73  and  _74
REMARK   29  A    between atoms: _73  and  _76
REMARK   30  A    between atoms: _79  and  _81
REMARK   31  A    between atoms: _81  and  _82
REMARK   32  A    between atoms: _84  and  _86
REMARK   33  A    between atoms: _86  and  _87
REMARK   34  A    between atoms: _86  and  _89
REMARK   35  A    between atoms: _92  and  _94
REMARK   36  A    between atoms: _94  and  _95
REMARK   37  A    between atoms: _94  and  _97
REMARK   38  A    between atoms: _97  and  _98
REMARK   39  A    between atoms: _104  and  _106
REMARK   40  A    between atoms: _106  and  _107
REMARK   41  A    between atoms: _106  and  _109
REMARK   42  A    between atoms: _112  and  _114
REMARK   43  A    between atoms: _114  and  _115
REMARK   44  A    between atoms: _114  and  _117
REMARK   45  A    between atoms: _117  and  _118
REMARK   46  A    between atoms: _118  and  _119
REMARK   47  A    between atoms: _121  and  _123
REMARK   48  A    between atoms: _123  and  _124
REMARK   49  A    between atoms: _123  and  _126
REMARK   50  A    between atoms: _126  and  _127
REMARK   51  A    between atoms: _130  and  _132
REMARK   52  A    between atoms: _132  and  _133
REMARK   53  A    between atoms: _132  and  _135
REMARK   54  A    between atoms: _135  and  _136
REMARK   55  A    between atoms: _136  and  _137
REMARK   56  A    between atoms: _140  and  _142
REMARK   57  A    between atoms: _142  and  _143
REMARK   58  A    between atoms: _142  and  _145
REMARK   59  A    between atoms: _145  and  _146
REMARK   60  A    between atoms: _151  and  _152
REMARK   61  A    between atoms: _154  and  _156
REMARK   62  A    between atoms: _156  and  _157
REMARK   63  A    between atoms: _159  and  _161
REMARK   64  A    between atoms: _161  and  _162
REMARK   65  A    between atoms: _161  and  _164
REMARK   66  A    between atoms: _164  and  _165
REMARK   67  A    between atoms: _165  and  _166
REMARK   68  A    between atoms: _169  and  _171
REMARK   69  A    between atoms: _171  and  _172
REMARK   70  A    between atoms: _171  and  _174
REMARK   71  A    between atoms: _174  and  _175
REMARK   72  A    between atoms: _178  and  _180
REMARK   73  A    between atoms: _180  and  _181
REMARK   74  A    between atoms: _180  and  _183
REMARK   75  A    between atoms: _183  and  _184
REMARK   76  A    between atoms: _184  and  _185
REMARK   77  A    between atoms: _185  and  _186
REMARK   78  A    between atoms: _195  and  _197
REMARK   79  A    between atoms: _197  and  _198
REMARK   80  A    between atoms: _197  and  _200
REMARK   81  A    between atoms: _200  and  _201
REMARK   82  A    between atoms: _201  and  _202
REMARK   83  A    between atoms: _202  and  _203
REMARK   84  A    between atoms: _203  and  _204
REMARK   85  A    between atoms: _208  and  _210
REMARK   86  A    between atoms: _210  and  _211
REMARK   87  A    between atoms: _210  and  _213
REMARK   88  A    between atoms: _216  and  _218
REMARK   89  A    between atoms: _218  and  _219
REMARK   90  A    between atoms: _222  and  _224
REMARK   91  A    between atoms: _224  and  _225
REMARK   92  A    between atoms: _224  and  _227
REMARK   93  A    between atoms: _227  and  _228
REMARK   94  A    between atoms: _233  and  _235
REMARK   95  A    between atoms: _235  and  _236
REMARK   96  A    between atoms: _235  and  _238
REMARK   97  A    between atoms: _238  and  _239
REMARK   98  A    between atoms: _241  and  _243
REMARK   99  A    between atoms: _243  and  _244
REMARK  100  A    between atoms: _243  and  _246
REMARK  101  A    between atoms: _246  and  _247
REMARK  102  A    between atoms: _247  and  _248
REMARK  103  A    between atoms: _253  and  _255
REMARK  104  A    between atoms: _255  and  _256
REMARK  105  A    between atoms: _255  and  _258
REMARK  106  A    between atoms: _258  and  _259
REMARK  107  A    between atoms: _262  and  _264
REMARK  108  A    between atoms: _264  and  _265
REMARK  109  A    between atoms: _264  and  _267
REMARK  110  A    between atoms: _267  and  _268
REMARK  111  A    between atoms: _273  and  _275
REMARK  112  A    between atoms: _275  and  _276
REMARK  113  A    between atoms: _275  and  _278
REMARK  114  A    between atoms: _278  and  _279
REMARK  115  A    between atoms: _279  and  _280
REMARK  116  A    between atoms: _280  and  _281
REMARK  117  A    between atoms: _290  and  _292
REMARK  118  A    between atoms: _292  and  _293
REMARK  119  A    between atoms: _292  and  _295
REMARK  120  A    between atoms: _298  and  _300
REMARK  121  A    between atoms: _300  and  _301
REMARK  122  A    between atoms: _300  and  _303
REMARK  123  A    between atoms: _303  and  _304
REMARK  124  A    between atoms: _307  and  _309
REMARK  125  A    between atoms: _309  and  _310
REMARK  126  A    between atoms: _309  and  _312
REMARK  127  A    between atoms: _312  and  _313
REMARK  128  A    between atoms: _316  and  _318
REMARK  129  A    between atoms: _318  and  _319
REMARK  130  A    between atoms: _321  and  _323
REMARK  131  A    between atoms: _323  and  _324
REMARK  132  A    between atoms: _323  and  _326
REMARK  133  A    between atoms: _326  and  _327
REMARK  134  A    between atoms: _330  and  _332
REMARK  135  A    between atoms: _332  and  _333
REMARK  136  A    between atoms: _332  and  _335
REMARK  137  A    between atoms: _335  and  _336
REMARK  138  A    between atoms: _339  and  _341
REMARK  139  A    between atoms: _341  and  _342
REMARK  140  A    between atoms: _341  and  _344
REMARK  141  A    between atoms: _344  and  _345
REMARK  142  A    between atoms: _345  and  _346
REMARK  143  A    between atoms: _346  and  _347
REMARK  144  A    between atoms: _356  and  _358
REMARK  145  A    between atoms: _358  and  _359
REMARK  146  A    between atoms: _358  and  _361
REMARK  147  A    between atoms: _361  and  _362
REMARK  148  A    between atoms: _367  and  _368
REMARK  149  A    between atoms: _370  and  _372
REMARK  150  A    between atoms: _372  and  _373
REMARK  151  A    between atoms: _372  and  _375
REMARK  152  A    between atoms: _378  and  _380
REMARK  153  A    between atoms: _380  and  _381
REMARK  154  A    between atoms: _380  and  _383
REMARK  155  A    between atoms: _383  and  _384
REMARK  156  A    between atoms: _384  and  _385
REMARK  157  A    between atoms: _385  and  _386
REMARK  158  A    between atoms: _395  and  _397
REMARK  159  A    between atoms: _397  and  _398
REMARK  160  A    between atoms: _397  and  _400
REMARK  161  A    between atoms: _400  and  _401
REMARK  162  A    between atoms: _406  and  _407
REMARK  163  A    between atoms: _409  and  _411
REMARK  164  A    between atoms: _411  and  _412
REMARK  165  A    between atoms: _414  and  _416
REMARK  166  A    between atoms: _416  and  _417
REMARK  167  A    between atoms: _416  and  _419
REMARK  168  A    between atoms: _419  and  _420
REMARK  169  A    between atoms: _420  and  _723
REMARK  170  A    between atoms: _421  and  _423
REMARK  171  A    between atoms: _423  and  _424
REMARK  172  A    between atoms: _423  and  _426
REMARK  173  A    between atoms: _426  and  _427
REMARK  174  A    between atoms: _432  and  _434
REMARK  175  A    between atoms: _434  and  _435
REMARK  176  A    between atoms: _434  and  _437
REMARK  177  A    between atoms: _437  and  _438
REMARK  178  A    between atoms: _443  and  _444
REMARK  179  A    between atoms: _446  and  _448
REMARK  180  A    between atoms: _448  and  _449
REMARK  181  A    between atoms: _452  and  _454
REMARK  182  A    between atoms: _454  and  _455
REMARK  183  A    between atoms: _454  and  _457
REMARK  184  A    between atoms: _457  and  _458
REMARK  185  A    between atoms: _463  and  _464
REMARK  186  A    between atoms: _466  and  _468
REMARK  187  A    between atoms: _468  and  _469
REMARK  188  A    between atoms: _468  and  _471
REMARK  189  A    between atoms: _471  and  _472
REMARK  190  A    between atoms: _477  and  _478
REMARK  191  A    between atoms: _480  and  _482
REMARK  192  A    between atoms: _482  and  _483
REMARK  193  A    between atoms: _482  and  _485
REMARK  194  A    between atoms: _485  and  _486
REMARK  195  A    between atoms: _489  and  _491
REMARK  196  A    between atoms: _491  and  _492
REMARK  197  A    between atoms: _491  and  _494
REMARK  198  A    between atoms: _494  and  _495
REMARK  199  A    between atoms: _505  and  _507
REMARK  200  A    between atoms: _507  and  _508
REMARK  201  A    between atoms: _511  and  _513
REMARK  202  A    between atoms: _513  and  _514
REMARK  203  A    between atoms: _517  and  _519
REMARK  204  A    between atoms: _519  and  _520
REMARK  205  A    between atoms: _519  and  _522
REMARK  206  A    between atoms: _522  and  _523
REMARK  207  A    between atoms: _523  and  _524
REMARK  208  A    between atoms: _529  and  _531
REMARK  209  A    between atoms: _531  and  _532
REMARK  210  A    between atoms: _531  and  _534
REMARK  211  A    between atoms: _534  and  _535
REMARK  212  A    between atoms: _538  and  _540
REMARK  213  A    between atoms: _540  and  _541
REMARK  214  A    between atoms: _540  and  _543
REMARK  215  A    between atoms: _543  and  _544
REMARK  216  A    between atoms: _547  and  _549
REMARK  217  A    between atoms: _549  and  _550
REMARK  218  A    between atoms: _549  and  _552
REMARK  219  A    between atoms: _552  and  _553
REMARK  220  A    between atoms: _553  and  _554
REMARK  221  A    between atoms: _554  and  _555
REMARK  222  A    between atoms: _555  and  _556
REMARK  223  A    between atoms: _560  and  _562
REMARK  224  A    between atoms: _562  and  _563
REMARK  225  A    between atoms: _562  and  _565
REMARK  226  A    between atoms: _565  and  _566
REMARK  227  A    between atoms: _571  and  _573
REMARK  228  A    between atoms: _573  and  _574
REMARK  229  A    between atoms: _573  and  _576
REMARK  230  A    between atoms: _576  and  _577
REMARK  231  A    between atoms: _577  and  _578
REMARK  232  A    between atoms: _578  and  _579
REMARK  233  A    between atoms: _579  and  _580
REMARK  234  A    between atoms: _584  and  _586
REMARK  235  A    between atoms: _586  and  _587
REMARK  236  A    between atoms: _586  and  _589
REMARK  237  A    between atoms: _589  and  _590
REMARK  238  A    between atoms: _600  and  _602
REMARK  239  A    between atoms: _602  and  _603
REMARK  240  A    between atoms: _602  and  _605
REMARK  241  A    between atoms: _605  and  _606
REMARK  242  A    between atoms: _606  and  _607
REMARK  243  A    between atoms: _610  and  _612
REMARK  244  A    between atoms: _612  and  _613
REMARK  245  A    between atoms: _616  and  _618
REMARK  246  A    between atoms: _618  and  _619
REMARK  247  A    between atoms: _622  and  _624
REMARK  248  A    between atoms: _624  and  _625
REMARK  249  A    between atoms: _624  and  _627
REMARK  250  A    between atoms: _627  and  _628
REMARK  251  A    between atoms: _633  and  _635
REMARK  252  A    between atoms: _635  and  _636
REMARK  253  A    between atoms: _635  and  _638
REMARK  254  A    between atoms: _641  and  _643
REMARK  255  A    between atoms: _643  and  _644
REMARK  256  A    between atoms: _647  and  _649
REMARK  257  A    between atoms: _649  and  _650
REMARK  258  A    between atoms: _649  and  _652
REMARK  259  A    between atoms: _652  and  _653
REMARK  260  A    between atoms: _653  and  _654
REMARK  261  A    between atoms: _659  and  _661
REMARK  262  A    between atoms: _661  and  _662
REMARK  263  A    between atoms: _661  and  _664
REMARK  264  A    between atoms: _664  and  _665
REMARK  265  A    between atoms: _668  and  _670
REMARK  266  A    between atoms: _670  and  _671
REMARK  267  A    between atoms: _670  and  _673
REMARK  268  A    between atoms: _673  and  _674
REMARK  269  A    between atoms: _674  and  _675
REMARK  270  A    between atoms: _675  and  _676
REMARK  271  A    between atoms: _685  and  _687
REMARK  272  A    between atoms: _687  and  _688
REMARK  273  A    between atoms: _687  and  _690
REMARK  274  A    between atoms: _690  and  _691
REMARK  275  A    between atoms: _696  and  _697
REMARK  276  A    between atoms: _699  and  _701
REMARK  277  A    between atoms: _701  and  _702
REMARK  278  A    between atoms: _701  and  _704
REMARK  279  A    between atoms: _704  and  _705
REMARK  280  A    between atoms: _708  and  _710
REMARK  281  A    between atoms: _710  and  _711
REMARK  282  A    between atoms: _710  and  _713
REMARK  283  A    between atoms: _713  and  _714
REMARK  284  A    between atoms: _717  and  _719
REMARK  285  A    between atoms: _719  and  _720
REMARK  286  A    between atoms: _719  and  _722
REMARK  287  A    between atoms: _722  and  _723
REMARK  288  A    between atoms: _724  and  _726
REMARK  289  A    between atoms: _726  and  _727
REMARK  290  A    between atoms: _726  and  _729
REMARK  291  A    between atoms: _732  and  _734
REMARK  292  A    between atoms: _734  and  _735
REMARK  293  A    between atoms: _734  and  _737
REMARK  294  A    between atoms: _737  and  _738
REMARK  295  A    between atoms: _738  and  _739
REMARK  296  A    between atoms: _742  and  _744
REMARK  297  A    between atoms: _744  and  _745
REMARK  298  A    between atoms: _744  and  _747
REMARK  299  A    between atoms: _747  and  _748
REMARK  300  A    between atoms: _758  and  _760
REMARK  301  A    between atoms: _760  and  _761
REMARK  302  A    between atoms: _760  and  _763
REMARK  303  A    between atoms: _763  and  _764
REMARK  304  A    between atoms: _767  and  _769
REMARK  305  A    between atoms: _769  and  _770
REMARK  306  A    between atoms: _769  and  _772
REMARK  307  A    between atoms: _772  and  _773
REMARK  308  A    between atoms: _773  and  _774
REMARK  309  A    between atoms: _774  and  _775
REMARK  310  A    between atoms: _784  and  _786
REMARK  311  A    between atoms: _786  and  _787
REMARK  312  A    between atoms: _786  and  _789
REMARK  313  A    between atoms: _789  and  _790
REMARK  314  A    between atoms: _795  and  _796
REMARK                            x       y       z     vdW  Elec       q    Type
REMARK                         _______ _______ _______ _____ _____    ______ ____
ROOT
ATOM      1  O   HOH     1      41.239   1.263  28.914  0.00  0.00    +0.000 OA
ENDROOT
TORSDOF 0
