REMARK  Name = ../refined-set-2016/3k02/3k02_pocket.pdb
REMARK  243 active torsions:
REMARK  status: ('A' for Active; 'I' for Inactive)
REMARK    1  A    between atoms: _1  and  _3
REMARK    2  A    between atoms: _3  and  _4
REMARK    3  A    between atoms: _3  and  _6
REMARK    4  A    between atoms: _6  and  _7
REMARK    5  A    between atoms: _10  and  _12
REMARK    6  A    between atoms: _12  and  _13
REMARK    7  A    between atoms: _12  and  _15
REMARK    8  A    between atoms: _15  and  _16
REMARK    9  A    between atoms: _19  and  _21
REMARK   10  A    between atoms: _21  and  _22
REMARK   11  A    between atoms: _21  and  _24
REMARK   12  A    between atoms: _24  and  _25
REMARK   13  A    between atoms: _27  and  _29
REMARK   14  A    between atoms: _29  and  _30
REMARK   15  A    between atoms: _29  and  _32
REMARK   16  A    between atoms: _32  and  _33
REMARK   17  A    between atoms: _38  and  _40
REMARK   18  A    between atoms: _40  and  _41
REMARK   19  A    between atoms: _40  and  _43
REMARK   20  A    between atoms: _43  and  _44
REMARK   21  A    between atoms: _44  and  _45
REMARK   22  A    between atoms: _48  and  _50
REMARK   23  A    between atoms: _50  and  _51
REMARK   24  A    between atoms: _54  and  _56
REMARK   25  A    between atoms: _56  and  _57
REMARK   26  A    between atoms: _56  and  _59
REMARK   27  A    between atoms: _59  and  _60
REMARK   28  A    between atoms: _60  and  _61
REMARK   29  A    between atoms: _64  and  _66
REMARK   30  A    between atoms: _66  and  _67
REMARK   31  A    between atoms: _66  and  _69
REMARK   32  A    between atoms: _69  and  _70
REMARK   33  A    between atoms: _70  and  _71
REMARK   34  A    between atoms: _71  and  _72
REMARK   35  A    between atoms: _72  and  _73
REMARK   36  A    between atoms: _77  and  _79
REMARK   37  A    between atoms: _79  and  _80
REMARK   38  A    between atoms: _79  and  _82
REMARK   39  A    between atoms: _82  and  _83
REMARK   40  A    between atoms: _88  and  _89
REMARK   41  A    between atoms: _91  and  _93
REMARK   42  A    between atoms: _93  and  _94
REMARK   43  A    between atoms: _93  and  _96
REMARK   44  A    between atoms: _96  and  _97
REMARK   45  A    between atoms: _102  and  _104
REMARK   46  A    between atoms: _104  and  _105
REMARK   47  A    between atoms: _104  and  _107
REMARK   48  A    between atoms: _111  and  _112
REMARK   49  A    between atoms: _117  and  _119
REMARK   50  A    between atoms: _119  and  _120
REMARK   51  A    between atoms: _119  and  _122
REMARK   52  A    between atoms: _122  and  _123
REMARK   53  A    between atoms: _129  and  _131
REMARK   54  A    between atoms: _131  and  _132
REMARK   55  A    between atoms: _134  and  _136
REMARK   56  A    between atoms: _136  and  _137
REMARK   57  A    between atoms: _136  and  _139
REMARK   58  A    between atoms: _139  and  _140
REMARK   59  A    between atoms: _140  and  _141
REMARK   60  A    between atoms: _144  and  _146
REMARK   61  A    between atoms: _146  and  _147
REMARK   62  A    between atoms: _150  and  _152
REMARK   63  A    between atoms: _152  and  _153
REMARK   64  A    between atoms: _152  and  _155
REMARK   65  A    between atoms: _155  and  _156
REMARK   66  A    between atoms: _161  and  _163
REMARK   67  A    between atoms: _163  and  _164
REMARK   68  A    between atoms: _167  and  _169
REMARK   69  A    between atoms: _169  and  _170
REMARK   70  A    between atoms: _169  and  _172
REMARK   71  A    between atoms: _172  and  _173
REMARK   72  A    between atoms: _173  and  _174
REMARK   73  A    between atoms: _174  and  _175
REMARK   74  A    between atoms: _175  and  _176
REMARK   75  A    between atoms: _180  and  _182
REMARK   76  A    between atoms: _182  and  _183
REMARK   77  A    between atoms: _182  and  _185
REMARK   78  A    between atoms: _185  and  _186
REMARK   79  A    between atoms: _186  and  _187
REMARK   80  A    between atoms: _187  and  _188
REMARK   81  A    between atoms: _197  and  _199
REMARK   82  A    between atoms: _199  and  _200
REMARK   83  A    between atoms: _199  and  _202
REMARK   84  A    between atoms: _202  and  _203
REMARK   85  A    between atoms: _203  and  _204
REMARK   86  A    between atoms: _207  and  _209
REMARK   87  A    between atoms: _209  and  _210
REMARK   88  A    between atoms: _209  and  _212
REMARK   89  A    between atoms: _215  and  _217
REMARK   90  A    between atoms: _217  and  _218
REMARK   91  A    between atoms: _221  and  _223
REMARK   92  A    between atoms: _223  and  _224
REMARK   93  A    between atoms: _223  and  _226
REMARK   94  A    between atoms: _226  and  _227
REMARK   95  A    between atoms: _237  and  _239
REMARK   96  A    between atoms: _239  and  _240
REMARK   97  A    between atoms: _239  and  _242
REMARK   98  A    between atoms: _245  and  _247
REMARK   99  A    between atoms: _247  and  _248
REMARK  100  A    between atoms: _247  and  _250
REMARK  101  A    between atoms: _250  and  _251
REMARK  102  A    between atoms: _254  and  _256
REMARK  103  A    between atoms: _256  and  _257
REMARK  104  A    between atoms: _256  and  _259
REMARK  105  A    between atoms: _259  and  _260
REMARK  106  A    between atoms: _266  and  _268
REMARK  107  A    between atoms: _268  and  _269
REMARK  108  A    between atoms: _268  and  _271
REMARK  109  A    between atoms: _271  and  _272
REMARK  110  A    between atoms: _272  and  _273
REMARK  111  A    between atoms: _278  and  _280
REMARK  112  A    between atoms: _280  and  _281
REMARK  113  A    between atoms: _280  and  _283
REMARK  114  A    between atoms: _286  and  _288
REMARK  115  A    between atoms: _288  and  _289
REMARK  116  A    between atoms: _288  and  _291
REMARK  117  A    between atoms: _291  and  _292
REMARK  118  A    between atoms: _295  and  _297
REMARK  119  A    between atoms: _297  and  _298
REMARK  120  A    between atoms: _297  and  _300
REMARK  121  A    between atoms: _300  and  _301
REMARK  122  A    between atoms: _304  and  _306
REMARK  123  A    between atoms: _306  and  _307
REMARK  124  A    between atoms: _306  and  _309
REMARK  125  A    between atoms: _309  and  _310
REMARK  126  A    between atoms: _313  and  _315
REMARK  127  A    between atoms: _315  and  _316
REMARK  128  A    between atoms: _315  and  _318
REMARK  129  A    between atoms: _318  and  _319
REMARK  130  A    between atoms: _322  and  _324
REMARK  131  A    between atoms: _324  and  _325
REMARK  132  A    between atoms: _324  and  _327
REMARK  133  A    between atoms: _327  and  _328
REMARK  134  A    between atoms: _328  and  _329
REMARK  135  A    between atoms: _329  and  _330
REMARK  136  A    between atoms: _339  and  _341
REMARK  137  A    between atoms: _341  and  _342
REMARK  138  A    between atoms: _341  and  _344
REMARK  139  A    between atoms: _344  and  _345
REMARK  140  A    between atoms: _348  and  _350
REMARK  141  A    between atoms: _350  and  _351
REMARK  142  A    between atoms: _350  and  _353
REMARK  143  A    between atoms: _353  and  _354
REMARK  144  A    between atoms: _358  and  _359
REMARK  145  A    between atoms: _364  and  _366
REMARK  146  A    between atoms: _366  and  _367
REMARK  147  A    between atoms: _366  and  _369
REMARK  148  A    between atoms: _369  and  _370
REMARK  149  A    between atoms: _375  and  _376
REMARK  150  A    between atoms: _378  and  _380
REMARK  151  A    between atoms: _380  and  _381
REMARK  152  A    between atoms: _380  and  _383
REMARK  153  A    between atoms: _383  and  _384
REMARK  154  A    between atoms: _394  and  _396
REMARK  155  A    between atoms: _396  and  _397
REMARK  156  A    between atoms: _396  and  _399
REMARK  157  A    between atoms: _399  and  _400
REMARK  158  A    between atoms: _406  and  _408
REMARK  159  A    between atoms: _408  and  _409
REMARK  160  A    between atoms: _408  and  _411
REMARK  161  A    between atoms: _411  and  _412
REMARK  162  A    between atoms: _415  and  _417
REMARK  163  A    between atoms: _417  and  _418
REMARK  164  A    between atoms: _417  and  _420
REMARK  165  A    between atoms: _420  and  _421
REMARK  166  A    between atoms: _431  and  _433
REMARK  167  A    between atoms: _433  and  _434
REMARK  168  A    between atoms: _433  and  _436
REMARK  169  A    between atoms: _436  and  _437
REMARK  170  A    between atoms: _437  and  _438
REMARK  171  A    between atoms: _440  and  _442
REMARK  172  A    between atoms: _442  and  _443
REMARK  173  A    between atoms: _442  and  _445
REMARK  174  A    between atoms: _445  and  _446
REMARK  175  A    between atoms: _451  and  _453
REMARK  176  A    between atoms: _453  and  _454
REMARK  177  A    between atoms: _457  and  _458
REMARK  178  A    between atoms: _463  and  _465
REMARK  179  A    between atoms: _465  and  _466
REMARK  180  A    between atoms: _465  and  _468
REMARK  181  A    between atoms: _468  and  _469
REMARK  182  A    between atoms: _479  and  _481
REMARK  183  A    between atoms: _481  and  _482
REMARK  184  A    between atoms: _486  and  _487
REMARK  185  A    between atoms: _492  and  _494
REMARK  186  A    between atoms: _494  and  _495
REMARK  187  A    between atoms: _494  and  _497
REMARK  188  A    between atoms: _497  and  _498
REMARK  189  A    between atoms: _498  and  _499
REMARK  190  A    between atoms: _504  and  _506
REMARK  191  A    between atoms: _506  and  _507
REMARK  192  A    between atoms: _509  and  _511
REMARK  193  A    between atoms: _511  and  _512
REMARK  194  A    between atoms: _514  and  _516
REMARK  195  A    between atoms: _516  and  _517
REMARK  196  A    between atoms: _516  and  _519
REMARK  197  A    between atoms: _519  and  _520
REMARK  198  A    between atoms: _530  and  _532
REMARK  199  A    between atoms: _532  and  _533
REMARK  200  A    between atoms: _532  and  _535
REMARK  201  A    between atoms: _535  and  _536
REMARK  202  A    between atoms: _539  and  _541
REMARK  203  A    between atoms: _541  and  _542
REMARK  204  A    between atoms: _541  and  _544
REMARK  205  A    between atoms: _544  and  _545
REMARK  206  A    between atoms: _548  and  _550
REMARK  207  A    between atoms: _550  and  _551
REMARK  208  A    between atoms: _550  and  _553
REMARK  209  A    between atoms: _553  and  _554
REMARK  210  A    between atoms: _554  and  _555
REMARK  211  A    between atoms: _555  and  _556
REMARK  212  A    between atoms: _565  and  _567
REMARK  213  A    between atoms: _567  and  _568
REMARK  214  A    between atoms: _567  and  _570
REMARK  215  A    between atoms: _570  and  _571
REMARK  216  A    between atoms: _581  and  _583
REMARK  217  A    between atoms: _583  and  _584
REMARK  218  A    between atoms: _586  and  _588
REMARK  219  A    between atoms: _588  and  _589
REMARK  220  A    between atoms: _588  and  _591
REMARK  221  A    between atoms: _591  and  _592
REMARK  222  A    between atoms: _597  and  _599
REMARK  223  A    between atoms: _599  and  _600
REMARK  224  A    between atoms: _603  and  _605
REMARK  225  A    between atoms: _605  and  _606
REMARK  226  A    between atoms: _605  and  _608
REMARK  227  A    between atoms: _608  and  _609
REMARK  228  A    between atoms: _612  and  _614
REMARK  229  A    between atoms: _614  and  _615
REMARK  230  A    between atoms: _614  and  _617
REMARK  231  A    between atoms: _617  and  _618
REMARK  232  A    between atoms: _624  and  _626
REMARK  233  A    between atoms: _626  and  _627
REMARK  234  A    between atoms: _626  and  _629
REMARK  235  A    between atoms: _629  and  _630
REMARK  236  A    between atoms: _630  and  _631
REMARK  237  A    between atoms: _635  and  _636
REMARK  238  A    between atoms: _641  and  _643
REMARK  239  A    between atoms: _643  and  _644
REMARK  240  A    between atoms: _643  and  _646
REMARK  241  A    between atoms: _646  and  _647
REMARK  242  A    between atoms: _647  and  _648
REMARK  243  A    between atoms: _648  and  _649
REMARK                            x       y       z     vdW  Elec       q    Type
REMARK                         _______ _______ _______ _____ _____    ______ ____
ROOT
ATOM      1  C   ASN A   4      -5.402   0.413  10.167  0.00  0.00    +0.241 C 
ATOM      2  N   GLU A   5      -6.643   0.730   9.803  0.00  0.00    -0.297 N 
ATOM      3  H   GLU A   5      -7.438   0.432  10.404  0.00  0.00    +0.150 HD
ATOM      4  O   ASN A   4      -4.394   0.824   9.571  0.00  0.00    -0.273 OA
ENDROOT
BRANCH   2   5
ATOM      5  CA  GLU A   5      -6.919   1.483   8.585  0.00  0.00    +0.149 C 
BRANCH   5   6
ATOM      6  C   GLU A   5      -6.245   2.871   8.565  0.00  0.00    +0.241 C 
ATOM      7  N   ALA A   6      -6.115   3.499   9.740  0.00  0.00    -0.297 N 
ATOM      8  H   ALA A   6      -6.458   3.027  10.601  0.00  0.00    +0.150 HD
ATOM      9  O   GLU A   5      -5.832   3.338   7.490  0.00  0.00    -0.273 OA
BRANCH   7  10
ATOM     10  CA  ALA A   6      -5.503   4.837   9.860  0.00  0.00    +0.149 C 
ATOM     11  CB  ALA A   6      -6.031   5.566  11.109  0.00  0.00    +0.031 C 
BRANCH  10  12
ATOM     12  C   ALA A   6      -3.969   4.776   9.878  0.00  0.00    +0.241 C 
ATOM     13  N   GLU A   7      -3.449   3.606  10.255  0.00  0.00    -0.297 N 
ATOM     14  H   GLU A   7      -4.087   2.799  10.411  0.00  0.00    +0.150 HD
ATOM     15  O   ALA A   6      -3.279   5.774   9.571  0.00  0.00    -0.273 OA
BRANCH  13  16
ATOM     16  CA  GLU A   7      -2.019   3.422  10.455  0.00  0.00    +0.149 C 
BRANCH  16  17
ATOM     17  C   GLU A   7      -1.304   2.847   9.228  0.00  0.00    +0.241 C 
ATOM     18  O   GLU A   7      -0.089   3.050   9.045  0.00  0.00    -0.273 OA
ATOM     19  N   LYS A   8      -2.039   2.096   8.411  0.00  0.00    -0.298 N 
ATOM     20  H   LYS A   8      -3.077   2.148   8.456  0.00  0.00    +0.150 HD
BRANCH  19  21
ATOM     21  CA  LYS A   8      -1.395   1.196   7.448  0.00  0.00    +0.137 C 
BRANCH  21  22
ATOM     22  C   LYS A   8      -0.641   1.876   6.294  0.00  0.00    +0.227 C 
ATOM     23  O   LYS A   8       0.323   1.312   5.764  0.00  0.00    -0.286 OA
ENDBRANCH  21  22
BRANCH  21  24
ATOM     24  CB  LYS A   8      -2.385   0.136   6.925  0.00  0.00    +0.028 C 
BRANCH  24  25
ATOM     25  CG  LYS A   8      -3.544   0.648   6.077  0.00  0.00    -0.000 C 
BRANCH  25  26
ATOM     26  CD  LYS A   8      -4.383  -0.549   5.635  0.00  0.00    -0.024 C 
BRANCH  26  27
ATOM     27  CE  LYS A   8      -5.543  -0.171   4.711  0.00  0.00    -0.086 C 
BRANCH  27  28
ATOM     28  NZ  LYS A   8      -6.554  -1.269   4.714  0.00  0.00    +0.380 N 
ATOM     29  HZ1 LYS A   8      -6.910  -1.408   5.681  0.00  0.00    -0.089 HD
ATOM     30  HZ2 LYS A   8      -6.111  -2.147   4.376  0.00  0.00    -0.089 HD
ATOM     31  HZ3 LYS A   8      -7.343  -1.014   4.086  0.00  0.00    -0.089 HD
ENDBRANCH  27  28
ENDBRANCH  26  27
ENDBRANCH  25  26
ENDBRANCH  24  25
ENDBRANCH  21  24
ENDBRANCH  19  21
ENDBRANCH  16  17
BRANCH  16  32
ATOM     32  CB  GLU A   7      -1.754   2.481  11.641  0.00  0.00    +0.041 C 
BRANCH  32  33
ATOM     33  CG  GLU A   7      -2.214   2.991  13.014  0.00  0.00    +0.116 C 
BRANCH  33  34
ATOM     34  CD  GLU A   7      -2.111   1.902  14.070  0.00  0.00    +0.365 C 
ATOM     35  OE2 GLU A   7      -1.634   2.203  15.183  0.00  0.00    -0.246 OA
ATOM     36  OE1 GLU A   7      -2.473   0.741  13.796  0.00  0.00    -0.246 OA
ENDBRANCH  33  34
ENDBRANCH  32  33
ENDBRANCH  16  32
ENDBRANCH  13  16
ENDBRANCH  10  12
ENDBRANCH   7  10
ENDBRANCH   5   6
BRANCH   5  37
ATOM     37  CB  GLU A   5      -8.437   1.566   8.333  0.00  0.00    +0.041 C 
BRANCH  37  38
ATOM     38  CG  GLU A   5      -8.807   2.026   6.923  0.00  0.00    +0.116 C 
BRANCH  38  39
ATOM     39  CD  GLU A   5      -8.785   3.533   6.776  0.00  0.00    +0.365 C 
ATOM     40  OE2 GLU A   5      -9.037   4.224   7.787  0.00  0.00    -0.246 OA
ATOM     41  OE1 GLU A   5      -8.504   4.021   5.651  0.00  0.00    -0.246 OA
ENDBRANCH  38  39
ENDBRANCH  37  38
ENDBRANCH   5  37
ENDBRANCH   2   5
BRANCH   1  42
ATOM     42  CA  ASN A   4      -5.279  -0.518  11.392  0.00  0.00    +0.158 C 
BRANCH  42  44
ATOM     43  C   SER A   3      -3.149  -1.702  11.194  0.00  0.00    +0.243 C 
ATOM     44  N   ASN A   4      -3.897  -0.773  11.792  0.00  0.00    -0.297 N 
ATOM     45  H   ASN A   4      -3.484  -0.214  12.566  0.00  0.00    +0.150 HD
ATOM     46  O   SER A   3      -3.509  -2.299  10.168  0.00  0.00    -0.273 OA
BRANCH  43  47
ATOM     47  CA  SER A   3      -1.801  -2.017  11.856  0.00  0.00    +0.178 C 
BRANCH  47  50
ATOM     48  C   THR A   2      -2.084  -4.426  11.820  0.00  0.00    +0.243 C 
ATOM     49  O   THR A   2      -3.202  -4.329  12.338  0.00  0.00    -0.273 OA
ATOM     50  N   SER A   3      -1.330  -3.368  11.518  0.00  0.00    -0.295 N 
ATOM     51  H   SER A   3      -0.413  -3.498  11.045  0.00  0.00    +0.150 HD
BRANCH  48  52
ATOM     52  CA  THR A   2      -1.493  -5.809  11.574  0.00  0.00    +0.176 C 
BRANCH  52  54
ATOM     53  C   ASP A   1       0.101  -5.896   9.738  0.00  0.00    +0.239 C 
ATOM     54  N   THR A   2      -0.131  -5.765  11.036  0.00  0.00    -0.295 N 
ATOM     55  H   THR A   2       0.670  -5.628  11.686  0.00  0.00    +0.150 HD
ATOM     56  O   ASP A   1      -0.810  -6.046   8.916  0.00  0.00    -0.274 OA
BRANCH  53  57
ATOM     57  CA  ASP A   1       1.571  -5.812   9.277  0.00  0.00    +0.156 C 
BRANCH  57  58
ATOM     58  N   ASP A   1       1.896  -6.906   8.350  0.00  0.00    -0.238 NA
ATOM     59  H   ASP A   1       1.509  -6.863   7.386  0.00  0.00    +0.142 HD
ENDBRANCH  57  58
BRANCH  57  60
ATOM     60  CB  ASP A   1       1.837  -4.487   8.552  0.00  0.00    +0.140 C 
BRANCH  60  61
ATOM     61  CG  ASP A   1       1.460  -3.284   9.376  0.00  0.00    +0.367 C 
ATOM     62  OD2 ASP A   1       1.536  -3.361  10.630  0.00  0.00    -0.246 OA
ATOM     63  OD1 ASP A   1       1.094  -2.267   8.752  0.00  0.00    -0.246 OA
ENDBRANCH  60  61
ENDBRANCH  57  60
ENDBRANCH  53  57
ENDBRANCH  52  54
BRANCH  52  64
ATOM     64  CB  THR A   2      -1.552  -6.506  12.936  0.00  0.00    +0.137 C 
ATOM     65  CG2 THR A   2      -1.105  -7.943  12.807  0.00  0.00    +0.034 C 
BRANCH  64  66
ATOM     66  OG1 THR A   2      -0.696  -5.817  13.850  0.00  0.00    -0.382 OA
ATOM     67  HG1 THR A   2      -0.730  -6.264  14.733  0.00  0.00    +0.210 HD
ENDBRANCH  64  66
ENDBRANCH  52  64
ENDBRANCH  48  52
ENDBRANCH  47  50
BRANCH  47  68
ATOM     68  CB  SER A   3      -0.743  -0.957  11.519  0.00  0.00    +0.166 C 
BRANCH  68  69
ATOM     69  OG  SER A   3      -0.687  -0.673  10.128  0.00  0.00    -0.380 OA
ATOM     70  H   SER A   3      -0.462  -1.500   9.632  0.00  0.00    +0.211 HD
ENDBRANCH  68  69
ENDBRANCH  47  68
ENDBRANCH  43  47
ENDBRANCH  42  44
BRANCH  42  71
ATOM     71  CB  ASN A   4      -6.136  -0.076  12.602  0.00  0.00    +0.114 C 
BRANCH  71  72
ATOM     72  CG  ASN A   4      -5.782   1.295  13.119  0.00  0.00    +0.222 C 
ATOM     73  ND2 ASN A   4      -5.999   1.512  14.435  0.00  0.00    -0.329 N 
ATOM     74 HD21 ASN A   4      -6.400   0.757  15.027  0.00  0.00    +0.145 HD
ATOM     75 HD22 ASN A   4      -5.765   2.434  14.856  0.00  0.00    +0.145 HD
ATOM     76  OD1 ASN A   4      -5.309   2.151  12.367  0.00  0.00    -0.275 OA
ENDBRANCH  71  72
ENDBRANCH  42  71
ENDBRANCH   1  42
TORSDOF 35
REMARK  Name = ../refined-set-2016/3k02/3k02_pocket.pdb
REMARK  243 active torsions:
REMARK  status: ('A' for Active; 'I' for Inactive)
REMARK    1  A    between atoms: _1  and  _3
REMARK    2  A    between atoms: _3  and  _4
REMARK    3  A    between atoms: _3  and  _6
REMARK    4  A    between atoms: _6  and  _7
REMARK    5  A    between atoms: _10  and  _12
REMARK    6  A    between atoms: _12  and  _13
REMARK    7  A    between atoms: _12  and  _15
REMARK    8  A    between atoms: _15  and  _16
REMARK    9  A    between atoms: _19  and  _21
REMARK   10  A    between atoms: _21  and  _22
REMARK   11  A    between atoms: _21  and  _24
REMARK   12  A    between atoms: _24  and  _25
REMARK   13  A    between atoms: _27  and  _29
REMARK   14  A    between atoms: _29  and  _30
REMARK   15  A    between atoms: _29  and  _32
REMARK   16  A    between atoms: _32  and  _33
REMARK   17  A    between atoms: _38  and  _40
REMARK   18  A    between atoms: _40  and  _41
REMARK   19  A    between atoms: _40  and  _43
REMARK   20  A    between atoms: _43  and  _44
REMARK   21  A    between atoms: _44  and  _45
REMARK   22  A    between atoms: _48  and  _50
REMARK   23  A    between atoms: _50  and  _51
REMARK   24  A    between atoms: _54  and  _56
REMARK   25  A    between atoms: _56  and  _57
REMARK   26  A    between atoms: _56  and  _59
REMARK   27  A    between atoms: _59  and  _60
REMARK   28  A    between atoms: _60  and  _61
REMARK   29  A    between atoms: _64  and  _66
REMARK   30  A    between atoms: _66  and  _67
REMARK   31  A    between atoms: _66  and  _69
REMARK   32  A    between atoms: _69  and  _70
REMARK   33  A    between atoms: _70  and  _71
REMARK   34  A    between atoms: _71  and  _72
REMARK   35  A    between atoms: _72  and  _73
REMARK   36  A    between atoms: _77  and  _79
REMARK   37  A    between atoms: _79  and  _80
REMARK   38  A    between atoms: _79  and  _82
REMARK   39  A    between atoms: _82  and  _83
REMARK   40  A    between atoms: _88  and  _89
REMARK   41  A    between atoms: _91  and  _93
REMARK   42  A    between atoms: _93  and  _94
REMARK   43  A    between atoms: _93  and  _96
REMARK   44  A    between atoms: _96  and  _97
REMARK   45  A    between atoms: _102  and  _104
REMARK   46  A    between atoms: _104  and  _105
REMARK   47  A    between atoms: _104  and  _107
REMARK   48  A    between atoms: _111  and  _112
REMARK   49  A    between atoms: _117  and  _119
REMARK   50  A    between atoms: _119  and  _120
REMARK   51  A    between atoms: _119  and  _122
REMARK   52  A    between atoms: _122  and  _123
REMARK   53  A    between atoms: _129  and  _131
REMARK   54  A    between atoms: _131  and  _132
REMARK   55  A    between atoms: _134  and  _136
REMARK   56  A    between atoms: _136  and  _137
REMARK   57  A    between atoms: _136  and  _139
REMARK   58  A    between atoms: _139  and  _140
REMARK   59  A    between atoms: _140  and  _141
REMARK   60  A    between atoms: _144  and  _146
REMARK   61  A    between atoms: _146  and  _147
REMARK   62  A    between atoms: _150  and  _152
REMARK   63  A    between atoms: _152  and  _153
REMARK   64  A    between atoms: _152  and  _155
REMARK   65  A    between atoms: _155  and  _156
REMARK   66  A    between atoms: _161  and  _163
REMARK   67  A    between atoms: _163  and  _164
REMARK   68  A    between atoms: _167  and  _169
REMARK   69  A    between atoms: _169  and  _170
REMARK   70  A    between atoms: _169  and  _172
REMARK   71  A    between atoms: _172  and  _173
REMARK   72  A    between atoms: _173  and  _174
REMARK   73  A    between atoms: _174  and  _175
REMARK   74  A    between atoms: _175  and  _176
REMARK   75  A    between atoms: _180  and  _182
REMARK   76  A    between atoms: _182  and  _183
REMARK   77  A    between atoms: _182  and  _185
REMARK   78  A    between atoms: _185  and  _186
REMARK   79  A    between atoms: _186  and  _187
REMARK   80  A    between atoms: _187  and  _188
REMARK   81  A    between atoms: _197  and  _199
REMARK   82  A    between atoms: _199  and  _200
REMARK   83  A    between atoms: _199  and  _202
REMARK   84  A    between atoms: _202  and  _203
REMARK   85  A    between atoms: _203  and  _204
REMARK   86  A    between atoms: _207  and  _209
REMARK   87  A    between atoms: _209  and  _210
REMARK   88  A    between atoms: _209  and  _212
REMARK   89  A    between atoms: _215  and  _217
REMARK   90  A    between atoms: _217  and  _218
REMARK   91  A    between atoms: _221  and  _223
REMARK   92  A    between atoms: _223  and  _224
REMARK   93  A    between atoms: _223  and  _226
REMARK   94  A    between atoms: _226  and  _227
REMARK   95  A    between atoms: _237  and  _239
REMARK   96  A    between atoms: _239  and  _240
REMARK   97  A    between atoms: _239  and  _242
REMARK   98  A    between atoms: _245  and  _247
REMARK   99  A    between atoms: _247  and  _248
REMARK  100  A    between atoms: _247  and  _250
REMARK  101  A    between atoms: _250  and  _251
REMARK  102  A    between atoms: _254  and  _256
REMARK  103  A    between atoms: _256  and  _257
REMARK  104  A    between atoms: _256  and  _259
REMARK  105  A    between atoms: _259  and  _260
REMARK  106  A    between atoms: _266  and  _268
REMARK  107  A    between atoms: _268  and  _269
REMARK  108  A    between atoms: _268  and  _271
REMARK  109  A    between atoms: _271  and  _272
REMARK  110  A    between atoms: _272  and  _273
REMARK  111  A    between atoms: _278  and  _280
REMARK  112  A    between atoms: _280  and  _281
REMARK  113  A    between atoms: _280  and  _283
REMARK  114  A    between atoms: _286  and  _288
REMARK  115  A    between atoms: _288  and  _289
REMARK  116  A    between atoms: _288  and  _291
REMARK  117  A    between atoms: _291  and  _292
REMARK  118  A    between atoms: _295  and  _297
REMARK  119  A    between atoms: _297  and  _298
REMARK  120  A    between atoms: _297  and  _300
REMARK  121  A    between atoms: _300  and  _301
REMARK  122  A    between atoms: _304  and  _306
REMARK  123  A    between atoms: _306  and  _307
REMARK  124  A    between atoms: _306  and  _309
REMARK  125  A    between atoms: _309  and  _310
REMARK  126  A    between atoms: _313  and  _315
REMARK  127  A    between atoms: _315  and  _316
REMARK  128  A    between atoms: _315  and  _318
REMARK  129  A    between atoms: _318  and  _319
REMARK  130  A    between atoms: _322  and  _324
REMARK  131  A    between atoms: _324  and  _325
REMARK  132  A    between atoms: _324  and  _327
REMARK  133  A    between atoms: _327  and  _328
REMARK  134  A    between atoms: _328  and  _329
REMARK  135  A    between atoms: _329  and  _330
REMARK  136  A    between atoms: _339  and  _341
REMARK  137  A    between atoms: _341  and  _342
REMARK  138  A    between atoms: _341  and  _344
REMARK  139  A    between atoms: _344  and  _345
REMARK  140  A    between atoms: _348  and  _350
REMARK  141  A    between atoms: _350  and  _351
REMARK  142  A    between atoms: _350  and  _353
REMARK  143  A    between atoms: _353  and  _354
REMARK  144  A    between atoms: _358  and  _359
REMARK  145  A    between atoms: _364  and  _366
REMARK  146  A    between atoms: _366  and  _367
REMARK  147  A    between atoms: _366  and  _369
REMARK  148  A    between atoms: _369  and  _370
REMARK  149  A    between atoms: _375  and  _376
REMARK  150  A    between atoms: _378  and  _380
REMARK  151  A    between atoms: _380  and  _381
REMARK  152  A    between atoms: _380  and  _383
REMARK  153  A    between atoms: _383  and  _384
REMARK  154  A    between atoms: _394  and  _396
REMARK  155  A    between atoms: _396  and  _397
REMARK  156  A    between atoms: _396  and  _399
REMARK  157  A    between atoms: _399  and  _400
REMARK  158  A    between atoms: _406  and  _408
REMARK  159  A    between atoms: _408  and  _409
REMARK  160  A    between atoms: _408  and  _411
REMARK  161  A    between atoms: _411  and  _412
REMARK  162  A    between atoms: _415  and  _417
REMARK  163  A    between atoms: _417  and  _418
REMARK  164  A    between atoms: _417  and  _420
REMARK  165  A    between atoms: _420  and  _421
REMARK  166  A    between atoms: _431  and  _433
REMARK  167  A    between atoms: _433  and  _434
REMARK  168  A    between atoms: _433  and  _436
REMARK  169  A    between atoms: _436  and  _437
REMARK  170  A    between atoms: _437  and  _438
REMARK  171  A    between atoms: _440  and  _442
REMARK  172  A    between atoms: _442  and  _443
REMARK  173  A    between atoms: _442  and  _445
REMARK  174  A    between atoms: _445  and  _446
REMARK  175  A    between atoms: _451  and  _453
REMARK  176  A    between atoms: _453  and  _454
REMARK  177  A    between atoms: _457  and  _458
REMARK  178  A    between atoms: _463  and  _465
REMARK  179  A    between atoms: _465  and  _466
REMARK  180  A    between atoms: _465  and  _468
REMARK  181  A    between atoms: _468  and  _469
REMARK  182  A    between atoms: _479  and  _481
REMARK  183  A    between atoms: _481  and  _482
REMARK  184  A    between atoms: _486  and  _487
REMARK  185  A    between atoms: _492  and  _494
REMARK  186  A    between atoms: _494  and  _495
REMARK  187  A    between atoms: _494  and  _497
REMARK  188  A    between atoms: _497  and  _498
REMARK  189  A    between atoms: _498  and  _499
REMARK  190  A    between atoms: _504  and  _506
REMARK  191  A    between atoms: _506  and  _507
REMARK  192  A    between atoms: _509  and  _511
REMARK  193  A    between atoms: _511  and  _512
REMARK  194  A    between atoms: _514  and  _516
REMARK  195  A    between atoms: _516  and  _517
REMARK  196  A    between atoms: _516  and  _519
REMARK  197  A    between atoms: _519  and  _520
REMARK  198  A    between atoms: _530  and  _532
REMARK  199  A    between atoms: _532  and  _533
REMARK  200  A    between atoms: _532  and  _535
REMARK  201  A    between atoms: _535  and  _536
REMARK  202  A    between atoms: _539  and  _541
REMARK  203  A    between atoms: _541  and  _542
REMARK  204  A    between atoms: _541  and  _544
REMARK  205  A    between atoms: _544  and  _545
REMARK  206  A    between atoms: _548  and  _550
REMARK  207  A    between atoms: _550  and  _551
REMARK  208  A    between atoms: _550  and  _553
REMARK  209  A    between atoms: _553  and  _554
REMARK  210  A    between atoms: _554  and  _555
REMARK  211  A    between atoms: _555  and  _556
REMARK  212  A    between atoms: _565  and  _567
REMARK  213  A    between atoms: _567  and  _568
REMARK  214  A    between atoms: _567  and  _570
REMARK  215  A    between atoms: _570  and  _571
REMARK  216  A    between atoms: _581  and  _583
REMARK  217  A    between atoms: _583  and  _584
REMARK  218  A    between atoms: _586  and  _588
REMARK  219  A    between atoms: _588  and  _589
REMARK  220  A    between atoms: _588  and  _591
REMARK  221  A    between atoms: _591  and  _592
REMARK  222  A    between atoms: _597  and  _599
REMARK  223  A    between atoms: _599  and  _600
REMARK  224  A    between atoms: _603  and  _605
REMARK  225  A    between atoms: _605  and  _606
REMARK  226  A    between atoms: _605  and  _608
REMARK  227  A    between atoms: _608  and  _609
REMARK  228  A    between atoms: _612  and  _614
REMARK  229  A    between atoms: _614  and  _615
REMARK  230  A    between atoms: _614  and  _617
REMARK  231  A    between atoms: _617  and  _618
REMARK  232  A    between atoms: _624  and  _626
REMARK  233  A    between atoms: _626  and  _627
REMARK  234  A    between atoms: _626  and  _629
REMARK  235  A    between atoms: _629  and  _630
REMARK  236  A    between atoms: _630  and  _631
REMARK  237  A    between atoms: _635  and  _636
REMARK  238  A    between atoms: _641  and  _643
REMARK  239  A    between atoms: _643  and  _644
REMARK  240  A    between atoms: _643  and  _646
REMARK  241  A    between atoms: _646  and  _647
REMARK  242  A    between atoms: _647  and  _648
REMARK  243  A    between atoms: _648  and  _649
REMARK                            x       y       z     vdW  Elec       q    Type
REMARK                         _______ _______ _______ _____ _____    ______ ____
ROOT
ATOM      1  CG  TYR A   1       3.253   0.684  10.254  0.00  0.00    -0.020 A 
ATOM      2  CD2 TYR A   1       2.231   0.830  11.210  0.00  0.00    -0.001 A 
ATOM      3  CE2 TYR A   1       2.544   0.993  12.556  0.00  0.00    +0.036 A 
ATOM      4  CZ  TYR A   1       3.896   1.007  12.956  0.00  0.00    +0.134 A 
ATOM      5  CE1 TYR A   1       4.914   0.863  12.021  0.00  0.00    +0.036 A 
ATOM      6  CD1 TYR A   1       4.584   0.714  10.689  0.00  0.00    -0.001 A 
ENDROOT
BRANCH   4   7
ATOM      7  OH  TYR A   1       4.250   1.165  14.294  0.00  0.00    -0.506 OA
ATOM      8  HH  TYR A   1       5.236   1.149  14.377  0.00  0.00    +0.292 HD
ENDBRANCH   4   7
BRANCH   1   9
ATOM      9  CB  TYR A   1       2.935   0.494   8.778  0.00  0.00    +0.051 C 
BRANCH   9  10
ATOM     10  CA  TYR A   1       3.642   1.524   7.896  0.00  0.00    +0.137 C 
BRANCH  10  11
ATOM     11  N   TYR A   1       2.830   2.718   7.751  0.00  0.00    -0.239 NA
ATOM     12  H   TYR A   1       1.838   2.707   8.064  0.00  0.00    +0.142 HD
ENDBRANCH  10  11
BRANCH  10  13
ATOM     13  C   TYR A   1       4.054   0.940   6.549  0.00  0.00    +0.224 C 
ATOM     14  O   TYR A   1       5.181   0.488   6.402  0.00  0.00    -0.287 OA
ENDBRANCH  10  13
ENDBRANCH   9  10
ENDBRANCH   1   9
TORSDOF 5
REMARK  Name = ../refined-set-2016/3k02/3k02_pocket.pdb
REMARK  243 active torsions:
REMARK  status: ('A' for Active; 'I' for Inactive)
REMARK    1  A    between atoms: _1  and  _3
REMARK    2  A    between atoms: _3  and  _4
REMARK    3  A    between atoms: _3  and  _6
REMARK    4  A    between atoms: _6  and  _7
REMARK    5  A    between atoms: _10  and  _12
REMARK    6  A    between atoms: _12  and  _13
REMARK    7  A    between atoms: _12  and  _15
REMARK    8  A    between atoms: _15  and  _16
REMARK    9  A    between atoms: _19  and  _21
REMARK   10  A    between atoms: _21  and  _22
REMARK   11  A    between atoms: _21  and  _24
REMARK   12  A    between atoms: _24  and  _25
REMARK   13  A    between atoms: _27  and  _29
REMARK   14  A    between atoms: _29  and  _30
REMARK   15  A    between atoms: _29  and  _32
REMARK   16  A    between atoms: _32  and  _33
REMARK   17  A    between atoms: _38  and  _40
REMARK   18  A    between atoms: _40  and  _41
REMARK   19  A    between atoms: _40  and  _43
REMARK   20  A    between atoms: _43  and  _44
REMARK   21  A    between atoms: _44  and  _45
REMARK   22  A    between atoms: _48  and  _50
REMARK   23  A    between atoms: _50  and  _51
REMARK   24  A    between atoms: _54  and  _56
REMARK   25  A    between atoms: _56  and  _57
REMARK   26  A    between atoms: _56  and  _59
REMARK   27  A    between atoms: _59  and  _60
REMARK   28  A    between atoms: _60  and  _61
REMARK   29  A    between atoms: _64  and  _66
REMARK   30  A    between atoms: _66  and  _67
REMARK   31  A    between atoms: _66  and  _69
REMARK   32  A    between atoms: _69  and  _70
REMARK   33  A    between atoms: _70  and  _71
REMARK   34  A    between atoms: _71  and  _72
REMARK   35  A    between atoms: _72  and  _73
REMARK   36  A    between atoms: _77  and  _79
REMARK   37  A    between atoms: _79  and  _80
REMARK   38  A    between atoms: _79  and  _82
REMARK   39  A    between atoms: _82  and  _83
REMARK   40  A    between atoms: _88  and  _89
REMARK   41  A    between atoms: _91  and  _93
REMARK   42  A    between atoms: _93  and  _94
REMARK   43  A    between atoms: _93  and  _96
REMARK   44  A    between atoms: _96  and  _97
REMARK   45  A    between atoms: _102  and  _104
REMARK   46  A    between atoms: _104  and  _105
REMARK   47  A    between atoms: _104  and  _107
REMARK   48  A    between atoms: _111  and  _112
REMARK   49  A    between atoms: _117  and  _119
REMARK   50  A    between atoms: _119  and  _120
REMARK   51  A    between atoms: _119  and  _122
REMARK   52  A    between atoms: _122  and  _123
REMARK   53  A    between atoms: _129  and  _131
REMARK   54  A    between atoms: _131  and  _132
REMARK   55  A    between atoms: _134  and  _136
REMARK   56  A    between atoms: _136  and  _137
REMARK   57  A    between atoms: _136  and  _139
REMARK   58  A    between atoms: _139  and  _140
REMARK   59  A    between atoms: _140  and  _141
REMARK   60  A    between atoms: _144  and  _146
REMARK   61  A    between atoms: _146  and  _147
REMARK   62  A    between atoms: _150  and  _152
REMARK   63  A    between atoms: _152  and  _153
REMARK   64  A    between atoms: _152  and  _155
REMARK   65  A    between atoms: _155  and  _156
REMARK   66  A    between atoms: _161  and  _163
REMARK   67  A    between atoms: _163  and  _164
REMARK   68  A    between atoms: _167  and  _169
REMARK   69  A    between atoms: _169  and  _170
REMARK   70  A    between atoms: _169  and  _172
REMARK   71  A    between atoms: _172  and  _173
REMARK   72  A    between atoms: _173  and  _174
REMARK   73  A    between atoms: _174  and  _175
REMARK   74  A    between atoms: _175  and  _176
REMARK   75  A    between atoms: _180  and  _182
REMARK   76  A    between atoms: _182  and  _183
REMARK   77  A    between atoms: _182  and  _185
REMARK   78  A    between atoms: _185  and  _186
REMARK   79  A    between atoms: _186  and  _187
REMARK   80  A    between atoms: _187  and  _188
REMARK   81  A    between atoms: _197  and  _199
REMARK   82  A    between atoms: _199  and  _200
REMARK   83  A    between atoms: _199  and  _202
REMARK   84  A    between atoms: _202  and  _203
REMARK   85  A    between atoms: _203  and  _204
REMARK   86  A    between atoms: _207  and  _209
REMARK   87  A    between atoms: _209  and  _210
REMARK   88  A    between atoms: _209  and  _212
REMARK   89  A    between atoms: _215  and  _217
REMARK   90  A    between atoms: _217  and  _218
REMARK   91  A    between atoms: _221  and  _223
REMARK   92  A    between atoms: _223  and  _224
REMARK   93  A    between atoms: _223  and  _226
REMARK   94  A    between atoms: _226  and  _227
REMARK   95  A    between atoms: _237  and  _239
REMARK   96  A    between atoms: _239  and  _240
REMARK   97  A    between atoms: _239  and  _242
REMARK   98  A    between atoms: _245  and  _247
REMARK   99  A    between atoms: _247  and  _248
REMARK  100  A    between atoms: _247  and  _250
REMARK  101  A    between atoms: _250  and  _251
REMARK  102  A    between atoms: _254  and  _256
REMARK  103  A    between atoms: _256  and  _257
REMARK  104  A    between atoms: _256  and  _259
REMARK  105  A    between atoms: _259  and  _260
REMARK  106  A    between atoms: _266  and  _268
REMARK  107  A    between atoms: _268  and  _269
REMARK  108  A    between atoms: _268  and  _271
REMARK  109  A    between atoms: _271  and  _272
REMARK  110  A    between atoms: _272  and  _273
REMARK  111  A    between atoms: _278  and  _280
REMARK  112  A    between atoms: _280  and  _281
REMARK  113  A    between atoms: _280  and  _283
REMARK  114  A    between atoms: _286  and  _288
REMARK  115  A    between atoms: _288  and  _289
REMARK  116  A    between atoms: _288  and  _291
REMARK  117  A    between atoms: _291  and  _292
REMARK  118  A    between atoms: _295  and  _297
REMARK  119  A    between atoms: _297  and  _298
REMARK  120  A    between atoms: _297  and  _300
REMARK  121  A    between atoms: _300  and  _301
REMARK  122  A    between atoms: _304  and  _306
REMARK  123  A    between atoms: _306  and  _307
REMARK  124  A    between atoms: _306  and  _309
REMARK  125  A    between atoms: _309  and  _310
REMARK  126  A    between atoms: _313  and  _315
REMARK  127  A    between atoms: _315  and  _316
REMARK  128  A    between atoms: _315  and  _318
REMARK  129  A    between atoms: _318  and  _319
REMARK  130  A    between atoms: _322  and  _324
REMARK  131  A    between atoms: _324  and  _325
REMARK  132  A    between atoms: _324  and  _327
REMARK  133  A    between atoms: _327  and  _328
REMARK  134  A    between atoms: _328  and  _329
REMARK  135  A    between atoms: _329  and  _330
REMARK  136  A    between atoms: _339  and  _341
REMARK  137  A    between atoms: _341  and  _342
REMARK  138  A    between atoms: _341  and  _344
REMARK  139  A    between atoms: _344  and  _345
REMARK  140  A    between atoms: _348  and  _350
REMARK  141  A    between atoms: _350  and  _351
REMARK  142  A    between atoms: _350  and  _353
REMARK  143  A    between atoms: _353  and  _354
REMARK  144  A    between atoms: _358  and  _359
REMARK  145  A    between atoms: _364  and  _366
REMARK  146  A    between atoms: _366  and  _367
REMARK  147  A    between atoms: _366  and  _369
REMARK  148  A    between atoms: _369  and  _370
REMARK  149  A    between atoms: _375  and  _376
REMARK  150  A    between atoms: _378  and  _380
REMARK  151  A    between atoms: _380  and  _381
REMARK  152  A    between atoms: _380  and  _383
REMARK  153  A    between atoms: _383  and  _384
REMARK  154  A    between atoms: _394  and  _396
REMARK  155  A    between atoms: _396  and  _397
REMARK  156  A    between atoms: _396  and  _399
REMARK  157  A    between atoms: _399  and  _400
REMARK  158  A    between atoms: _406  and  _408
REMARK  159  A    between atoms: _408  and  _409
REMARK  160  A    between atoms: _408  and  _411
REMARK  161  A    between atoms: _411  and  _412
REMARK  162  A    between atoms: _415  and  _417
REMARK  163  A    between atoms: _417  and  _418
REMARK  164  A    between atoms: _417  and  _420
REMARK  165  A    between atoms: _420  and  _421
REMARK  166  A    between atoms: _431  and  _433
REMARK  167  A    between atoms: _433  and  _434
REMARK  168  A    between atoms: _433  and  _436
REMARK  169  A    between atoms: _436  and  _437
REMARK  170  A    between atoms: _437  and  _438
REMARK  171  A    between atoms: _440  and  _442
REMARK  172  A    between atoms: _442  and  _443
REMARK  173  A    between atoms: _442  and  _445
REMARK  174  A    between atoms: _445  and  _446
REMARK  175  A    between atoms: _451  and  _453
REMARK  176  A    between atoms: _453  and  _454
REMARK  177  A    between atoms: _457  and  _458
REMARK  178  A    between atoms: _463  and  _465
REMARK  179  A    between atoms: _465  and  _466
REMARK  180  A    between atoms: _465  and  _468
REMARK  181  A    between atoms: _468  and  _469
REMARK  182  A    between atoms: _479  and  _481
REMARK  183  A    between atoms: _481  and  _482
REMARK  184  A    between atoms: _486  and  _487
REMARK  185  A    between atoms: _492  and  _494
REMARK  186  A    between atoms: _494  and  _495
REMARK  187  A    between atoms: _494  and  _497
REMARK  188  A    between atoms: _497  and  _498
REMARK  189  A    between atoms: _498  and  _499
REMARK  190  A    between atoms: _504  and  _506
REMARK  191  A    between atoms: _506  and  _507
REMARK  192  A    between atoms: _509  and  _511
REMARK  193  A    between atoms: _511  and  _512
REMARK  194  A    between atoms: _514  and  _516
REMARK  195  A    between atoms: _516  and  _517
REMARK  196  A    between atoms: _516  and  _519
REMARK  197  A    between atoms: _519  and  _520
REMARK  198  A    between atoms: _530  and  _532
REMARK  199  A    between atoms: _532  and  _533
REMARK  200  A    between atoms: _532  and  _535
REMARK  201  A    between atoms: _535  and  _536
REMARK  202  A    between atoms: _539  and  _541
REMARK  203  A    between atoms: _541  and  _542
REMARK  204  A    between atoms: _541  and  _544
REMARK  205  A    between atoms: _544  and  _545
REMARK  206  A    between atoms: _548  and  _550
REMARK  207  A    between atoms: _550  and  _551
REMARK  208  A    between atoms: _550  and  _553
REMARK  209  A    between atoms: _553  and  _554
REMARK  210  A    between atoms: _554  and  _555
REMARK  211  A    between atoms: _555  and  _556
REMARK  212  A    between atoms: _565  and  _567
REMARK  213  A    between atoms: _567  and  _568
REMARK  214  A    between atoms: _567  and  _570
REMARK  215  A    between atoms: _570  and  _571
REMARK  216  A    between atoms: _581  and  _583
REMARK  217  A    between atoms: _583  and  _584
REMARK  218  A    between atoms: _586  and  _588
REMARK  219  A    between atoms: _588  and  _589
REMARK  220  A    between atoms: _588  and  _591
REMARK  221  A    between atoms: _591  and  _592
REMARK  222  A    between atoms: _597  and  _599
REMARK  223  A    between atoms: _599  and  _600
REMARK  224  A    between atoms: _603  and  _605
REMARK  225  A    between atoms: _605  and  _606
REMARK  226  A    between atoms: _605  and  _608
REMARK  227  A    between atoms: _608  and  _609
REMARK  228  A    between atoms: _612  and  _614
REMARK  229  A    between atoms: _614  and  _615
REMARK  230  A    between atoms: _614  and  _617
REMARK  231  A    between atoms: _617  and  _618
REMARK  232  A    between atoms: _624  and  _626
REMARK  233  A    between atoms: _626  and  _627
REMARK  234  A    between atoms: _626  and  _629
REMARK  235  A    between atoms: _629  and  _630
REMARK  236  A    between atoms: _630  and  _631
REMARK  237  A    between atoms: _635  and  _636
REMARK  238  A    between atoms: _641  and  _643
REMARK  239  A    between atoms: _643  and  _644
REMARK  240  A    between atoms: _643  and  _646
REMARK  241  A    between atoms: _646  and  _647
REMARK  242  A    between atoms: _647  and  _648
REMARK  243  A    between atoms: _648  and  _649
REMARK                            x       y       z     vdW  Elec       q    Type
REMARK                         _______ _______ _______ _____ _____    ______ ____
ROOT
ATOM      1  C   PHE A   4      -6.226  -9.160  14.235  0.00  0.00    +0.241 C 
ATOM      2  O   PHE A   4      -5.524 -10.043  14.732  0.00  0.00    -0.273 OA
ATOM      3  N   GLY A   5      -7.541  -9.284  14.045  0.00  0.00    -0.295 N 
ATOM      4  H   GLY A   5      -8.042  -8.543  13.515  0.00  0.00    +0.150 HD
ENDROOT
BRANCH   3   5
ATOM      5  CA  GLY A   5      -8.314 -10.440  14.561  0.00  0.00    +0.176 C 
BRANCH   5   6
ATOM      6  C   GLY A   5      -7.990 -11.770  13.909  0.00  0.00    +0.243 C 
ATOM      7  O   GLY A   5      -8.246 -12.846  14.504  0.00  0.00    -0.273 OA
ATOM      8  N   GLU A   6      -7.438 -11.695  12.700  0.00  0.00    -0.297 N 
ATOM      9  H   GLU A   6      -7.239 -10.752  12.308  0.00  0.00    +0.150 HD
BRANCH   8  10
ATOM     10  CA  GLU A   6      -7.096 -12.866  11.892  0.00  0.00    +0.149 C 
BRANCH  10  11
ATOM     11  C   GLU A   6      -5.608 -13.241  11.962  0.00  0.00    +0.241 C 
ATOM     12  N   ALA A   7      -4.762 -12.297  12.402  0.00  0.00    -0.297 N 
ATOM     13  H   ALA A   7      -5.133 -11.474  12.919  0.00  0.00    +0.150 HD
ATOM     14  O   GLU A   6      -5.223 -14.380  11.627  0.00  0.00    -0.273 OA
BRANCH  12  15
ATOM     15  CA  ALA A   7      -3.323 -12.414  12.162  0.00  0.00    +0.149 C 
ATOM     16  CB  ALA A   7      -2.618 -11.048  12.426  0.00  0.00    +0.031 C 
BRANCH  15  17
ATOM     17  C   ALA A   7      -2.625 -13.551  12.933  0.00  0.00    +0.241 C 
ATOM     18  N   ASN A   8      -2.992 -13.741  14.199  0.00  0.00    -0.297 N 
ATOM     19  H   ASN A   8      -3.698 -13.113  14.632  0.00  0.00    +0.150 HD
ATOM     20  O   ALA A   7      -1.764 -14.254  12.387  0.00  0.00    -0.273 OA
BRANCH  18  21
ATOM     21  CA  ASN A   8      -2.403 -14.837  14.990  0.00  0.00    +0.158 C 
BRANCH  21  22
ATOM     22  C   ASN A   8      -2.665 -16.202  14.326  0.00  0.00    +0.241 C 
ATOM     23  O   ASN A   8      -1.732 -16.981  14.082  0.00  0.00    -0.273 OA
ATOM     24  N   ALA A   9      -3.937 -16.475  14.031  0.00  0.00    -0.298 N 
ATOM     25  H   ALA A   9      -4.674 -15.786  14.284  0.00  0.00    +0.150 HD
BRANCH  24  26
ATOM     26  CA  ALA A   9      -4.324 -17.724  13.358  0.00  0.00    +0.137 C 
ATOM     27  CB  ALA A   9      -5.842 -17.850  13.313  0.00  0.00    +0.030 C 
BRANCH  26  28
ATOM     28  C   ALA A   9      -3.725 -17.825  11.956  0.00  0.00    +0.227 C 
ATOM     29  O   ALA A   9      -3.282 -18.901  11.539  0.00  0.00    -0.286 OA
ENDBRANCH  26  28
ENDBRANCH  24  26
ENDBRANCH  21  22
BRANCH  21  30
ATOM     30  CB  ASN A   8      -2.925 -14.798  16.442  0.00  0.00    +0.114 C 
BRANCH  30  31
ATOM     31  CG  ASN A   8      -2.219 -15.793  17.359  0.00  0.00    +0.222 C 
ATOM     32  ND2 ASN A   8      -1.485 -15.275  18.355  0.00  0.00    -0.329 N 
ATOM     33 HD21 ASN A   8      -1.017 -15.905  19.038  0.00  0.00    +0.145 HD
ATOM     34 HD22 ASN A   8      -1.384 -14.244  18.444  0.00  0.00    +0.145 HD
ATOM     35  OD1 ASN A   8      -2.371 -17.006  17.208  0.00  0.00    -0.275 OA
ENDBRANCH  30  31
ENDBRANCH  21  30
ENDBRANCH  18  21
ENDBRANCH  15  17
ENDBRANCH  12  15
ENDBRANCH  10  11
BRANCH  10  36
ATOM     36  CB  GLU A   6      -7.513 -12.617  10.420  0.00  0.00    +0.041 C 
BRANCH  36  37
ATOM     37  CG  GLU A   6      -9.017 -12.364  10.264  0.00  0.00    +0.116 C 
BRANCH  37  38
ATOM     38  CD  GLU A   6      -9.430 -11.632   8.967  0.00  0.00    +0.365 C 
ATOM     39  OE2 GLU A   6     -10.495 -10.947   9.022  0.00  0.00    -0.246 OA
ATOM     40  OE1 GLU A   6      -8.718 -11.726   7.941  0.00  0.00    -0.246 OA
ENDBRANCH  37  38
ENDBRANCH  36  37
ENDBRANCH  10  36
ENDBRANCH   8  10
ENDBRANCH   5   6
ENDBRANCH   3   5
BRANCH   1  41
ATOM     41  CA  PHE A   4      -5.590  -7.826  13.785  0.00  0.00    +0.153 C 
BRANCH  41  43
ATOM     42  C   PRO A   3      -5.987  -8.259  11.423  0.00  0.00    +0.241 C 
ATOM     43  N   PHE A   4      -5.967  -7.405  12.439  0.00  0.00    -0.297 N 
ATOM     44  H   PHE A   4      -6.226  -6.412  12.272  0.00  0.00    +0.150 HD
ATOM     45  O   PRO A   3      -5.709  -9.459  11.552  0.00  0.00    -0.273 OA
BRANCH  42  49
ATOM     46  C   VAL A   2      -4.230  -8.136   9.039  0.00  0.00    +0.244 C 
ATOM     47  O   VAL A   2      -3.614  -7.715  10.016  0.00  0.00    -0.273 OA
ATOM     48  N   PRO A   3      -5.579  -8.174   8.981  0.00  0.00    -0.272 N 
ATOM     49  CA  PRO A   3      -6.421  -7.695  10.078  0.00  0.00    +0.152 C 
ATOM     50  CB  PRO A   3      -7.812  -8.243   9.712  0.00  0.00    +0.031 C 
ATOM     51  CG  PRO A   3      -7.784  -8.206   8.214  0.00  0.00    +0.024 C 
ATOM     52  CD  PRO A   3      -6.401  -8.650   7.849  0.00  0.00    +0.094 C 
BRANCH  46  53
ATOM     53  CA  VAL A   2      -3.437  -8.651   7.840  0.00  0.00    +0.149 C 
BRANCH  53  55
ATOM     54  C   ASN A   1      -2.714  -7.073   6.111  0.00  0.00    +0.239 C 
ATOM     55  N   VAL A   2      -2.640  -7.522   7.358  0.00  0.00    -0.297 N 
ATOM     56  H   VAL A   2      -1.989  -7.052   8.019  0.00  0.00    +0.150 HD
ATOM     57  O   ASN A   1      -3.442  -7.576   5.249  0.00  0.00    -0.274 OA
BRANCH  54  58
ATOM     58  CA  ASN A   1      -1.817  -5.886   5.773  0.00  0.00    +0.154 C 
BRANCH  58  59
ATOM     59  N   ASN A   1      -1.038  -6.205   4.581  0.00  0.00    -0.238 NA
ATOM     60  H   ASN A   1      -1.426  -5.982   3.642  0.00  0.00    +0.142 HD
ENDBRANCH  58  59
BRANCH  58  61
ATOM     61  CB  ASN A   1      -2.670  -4.639   5.565  0.00  0.00    +0.111 C 
BRANCH  61  62
ATOM     62  CG  ASN A   1      -3.308  -4.170   6.852  0.00  0.00    +0.221 C 
ATOM     63  ND2 ASN A   1      -2.558  -3.386   7.621  0.00  0.00    -0.329 N 
ATOM     64 HD21 ASN A   1      -2.916  -3.066   8.544  0.00  0.00    +0.145 HD
ATOM     65 HD22 ASN A   1      -1.613  -3.093   7.300  0.00  0.00    +0.145 HD
ATOM     66  OD1 ASN A   1      -4.440  -4.551   7.182  0.00  0.00    -0.275 OA
ENDBRANCH  61  62
ENDBRANCH  58  61
ENDBRANCH  54  58
ENDBRANCH  53  55
BRANCH  53  67
ATOM     67  CB  VAL A   2      -2.557  -9.849   8.299  0.00  0.00    +0.027 C 
ATOM     68  CG2 VAL A   2      -3.446 -11.008   8.776  0.00  0.00    +0.002 C 
ATOM     69  CG1 VAL A   2      -1.633 -10.335   7.181  0.00  0.00    +0.002 C 
ENDBRANCH  53  67
ENDBRANCH  46  53
ENDBRANCH  42  49
ENDBRANCH  41  43
BRANCH  41  70
ATOM     70  CB  PHE A   4      -5.940  -6.710  14.778  0.00  0.00    +0.055 C 
BRANCH  70  71
ATOM     71  CG  PHE A   4      -5.834  -7.111  16.219  0.00  0.00    -0.020 A 
ATOM     72  CD2 PHE A   4      -6.975  -7.176  17.015  0.00  0.00    -0.004 A 
ATOM     73  CE2 PHE A   4      -6.905  -7.551  18.363  0.00  0.00    -0.000 A 
ATOM     74  CZ  PHE A   4      -5.679  -7.857  18.923  0.00  0.00    -0.000 A 
ATOM     75  CE1 PHE A   4      -4.516  -7.802  18.129  0.00  0.00    -0.000 A 
ATOM     76  CD1 PHE A   4      -4.604  -7.407  16.787  0.00  0.00    -0.004 A 
ENDBRANCH  70  71
ENDBRANCH  41  70
ENDBRANCH   1  41
TORSDOF 27
REMARK  Name = ../refined-set-2016/3k02/3k02_pocket.pdb
REMARK  243 active torsions:
REMARK  status: ('A' for Active; 'I' for Inactive)
REMARK    1  A    between atoms: _1  and  _3
REMARK    2  A    between atoms: _3  and  _4
REMARK    3  A    between atoms: _3  and  _6
REMARK    4  A    between atoms: _6  and  _7
REMARK    5  A    between atoms: _10  and  _12
REMARK    6  A    between atoms: _12  and  _13
REMARK    7  A    between atoms: _12  and  _15
REMARK    8  A    between atoms: _15  and  _16
REMARK    9  A    between atoms: _19  and  _21
REMARK   10  A    between atoms: _21  and  _22
REMARK   11  A    between atoms: _21  and  _24
REMARK   12  A    between atoms: _24  and  _25
REMARK   13  A    between atoms: _27  and  _29
REMARK   14  A    between atoms: _29  and  _30
REMARK   15  A    between atoms: _29  and  _32
REMARK   16  A    between atoms: _32  and  _33
REMARK   17  A    between atoms: _38  and  _40
REMARK   18  A    between atoms: _40  and  _41
REMARK   19  A    between atoms: _40  and  _43
REMARK   20  A    between atoms: _43  and  _44
REMARK   21  A    between atoms: _44  and  _45
REMARK   22  A    between atoms: _48  and  _50
REMARK   23  A    between atoms: _50  and  _51
REMARK   24  A    between atoms: _54  and  _56
REMARK   25  A    between atoms: _56  and  _57
REMARK   26  A    between atoms: _56  and  _59
REMARK   27  A    between atoms: _59  and  _60
REMARK   28  A    between atoms: _60  and  _61
REMARK   29  A    between atoms: _64  and  _66
REMARK   30  A    between atoms: _66  and  _67
REMARK   31  A    between atoms: _66  and  _69
REMARK   32  A    between atoms: _69  and  _70
REMARK   33  A    between atoms: _70  and  _71
REMARK   34  A    between atoms: _71  and  _72
REMARK   35  A    between atoms: _72  and  _73
REMARK   36  A    between atoms: _77  and  _79
REMARK   37  A    between atoms: _79  and  _80
REMARK   38  A    between atoms: _79  and  _82
REMARK   39  A    between atoms: _82  and  _83
REMARK   40  A    between atoms: _88  and  _89
REMARK   41  A    between atoms: _91  and  _93
REMARK   42  A    between atoms: _93  and  _94
REMARK   43  A    between atoms: _93  and  _96
REMARK   44  A    between atoms: _96  and  _97
REMARK   45  A    between atoms: _102  and  _104
REMARK   46  A    between atoms: _104  and  _105
REMARK   47  A    between atoms: _104  and  _107
REMARK   48  A    between atoms: _111  and  _112
REMARK   49  A    between atoms: _117  and  _119
REMARK   50  A    between atoms: _119  and  _120
REMARK   51  A    between atoms: _119  and  _122
REMARK   52  A    between atoms: _122  and  _123
REMARK   53  A    between atoms: _129  and  _131
REMARK   54  A    between atoms: _131  and  _132
REMARK   55  A    between atoms: _134  and  _136
REMARK   56  A    between atoms: _136  and  _137
REMARK   57  A    between atoms: _136  and  _139
REMARK   58  A    between atoms: _139  and  _140
REMARK   59  A    between atoms: _140  and  _141
REMARK   60  A    between atoms: _144  and  _146
REMARK   61  A    between atoms: _146  and  _147
REMARK   62  A    between atoms: _150  and  _152
REMARK   63  A    between atoms: _152  and  _153
REMARK   64  A    between atoms: _152  and  _155
REMARK   65  A    between atoms: _155  and  _156
REMARK   66  A    between atoms: _161  and  _163
REMARK   67  A    between atoms: _163  and  _164
REMARK   68  A    between atoms: _167  and  _169
REMARK   69  A    between atoms: _169  and  _170
REMARK   70  A    between atoms: _169  and  _172
REMARK   71  A    between atoms: _172  and  _173
REMARK   72  A    between atoms: _173  and  _174
REMARK   73  A    between atoms: _174  and  _175
REMARK   74  A    between atoms: _175  and  _176
REMARK   75  A    between atoms: _180  and  _182
REMARK   76  A    between atoms: _182  and  _183
REMARK   77  A    between atoms: _182  and  _185
REMARK   78  A    between atoms: _185  and  _186
REMARK   79  A    between atoms: _186  and  _187
REMARK   80  A    between atoms: _187  and  _188
REMARK   81  A    between atoms: _197  and  _199
REMARK   82  A    between atoms: _199  and  _200
REMARK   83  A    between atoms: _199  and  _202
REMARK   84  A    between atoms: _202  and  _203
REMARK   85  A    between atoms: _203  and  _204
REMARK   86  A    between atoms: _207  and  _209
REMARK   87  A    between atoms: _209  and  _210
REMARK   88  A    between atoms: _209  and  _212
REMARK   89  A    between atoms: _215  and  _217
REMARK   90  A    between atoms: _217  and  _218
REMARK   91  A    between atoms: _221  and  _223
REMARK   92  A    between atoms: _223  and  _224
REMARK   93  A    between atoms: _223  and  _226
REMARK   94  A    between atoms: _226  and  _227
REMARK   95  A    between atoms: _237  and  _239
REMARK   96  A    between atoms: _239  and  _240
REMARK   97  A    between atoms: _239  and  _242
REMARK   98  A    between atoms: _245  and  _247
REMARK   99  A    between atoms: _247  and  _248
REMARK  100  A    between atoms: _247  and  _250
REMARK  101  A    between atoms: _250  and  _251
REMARK  102  A    between atoms: _254  and  _256
REMARK  103  A    between atoms: _256  and  _257
REMARK  104  A    between atoms: _256  and  _259
REMARK  105  A    between atoms: _259  and  _260
REMARK  106  A    between atoms: _266  and  _268
REMARK  107  A    between atoms: _268  and  _269
REMARK  108  A    between atoms: _268  and  _271
REMARK  109  A    between atoms: _271  and  _272
REMARK  110  A    between atoms: _272  and  _273
REMARK  111  A    between atoms: _278  and  _280
REMARK  112  A    between atoms: _280  and  _281
REMARK  113  A    between atoms: _280  and  _283
REMARK  114  A    between atoms: _286  and  _288
REMARK  115  A    between atoms: _288  and  _289
REMARK  116  A    between atoms: _288  and  _291
REMARK  117  A    between atoms: _291  and  _292
REMARK  118  A    between atoms: _295  and  _297
REMARK  119  A    between atoms: _297  and  _298
REMARK  120  A    between atoms: _297  and  _300
REMARK  121  A    between atoms: _300  and  _301
REMARK  122  A    between atoms: _304  and  _306
REMARK  123  A    between atoms: _306  and  _307
REMARK  124  A    between atoms: _306  and  _309
REMARK  125  A    between atoms: _309  and  _310
REMARK  126  A    between atoms: _313  and  _315
REMARK  127  A    between atoms: _315  and  _316
REMARK  128  A    between atoms: _315  and  _318
REMARK  129  A    between atoms: _318  and  _319
REMARK  130  A    between atoms: _322  and  _324
REMARK  131  A    between atoms: _324  and  _325
REMARK  132  A    between atoms: _324  and  _327
REMARK  133  A    between atoms: _327  and  _328
REMARK  134  A    between atoms: _328  and  _329
REMARK  135  A    between atoms: _329  and  _330
REMARK  136  A    between atoms: _339  and  _341
REMARK  137  A    between atoms: _341  and  _342
REMARK  138  A    between atoms: _341  and  _344
REMARK  139  A    between atoms: _344  and  _345
REMARK  140  A    between atoms: _348  and  _350
REMARK  141  A    between atoms: _350  and  _351
REMARK  142  A    between atoms: _350  and  _353
REMARK  143  A    between atoms: _353  and  _354
REMARK  144  A    between atoms: _358  and  _359
REMARK  145  A    between atoms: _364  and  _366
REMARK  146  A    between atoms: _366  and  _367
REMARK  147  A    between atoms: _366  and  _369
REMARK  148  A    between atoms: _369  and  _370
REMARK  149  A    between atoms: _375  and  _376
REMARK  150  A    between atoms: _378  and  _380
REMARK  151  A    between atoms: _380  and  _381
REMARK  152  A    between atoms: _380  and  _383
REMARK  153  A    between atoms: _383  and  _384
REMARK  154  A    between atoms: _394  and  _396
REMARK  155  A    between atoms: _396  and  _397
REMARK  156  A    between atoms: _396  and  _399
REMARK  157  A    between atoms: _399  and  _400
REMARK  158  A    between atoms: _406  and  _408
REMARK  159  A    between atoms: _408  and  _409
REMARK  160  A    between atoms: _408  and  _411
REMARK  161  A    between atoms: _411  and  _412
REMARK  162  A    between atoms: _415  and  _417
REMARK  163  A    between atoms: _417  and  _418
REMARK  164  A    between atoms: _417  and  _420
REMARK  165  A    between atoms: _420  and  _421
REMARK  166  A    between atoms: _431  and  _433
REMARK  167  A    between atoms: _433  and  _434
REMARK  168  A    between atoms: _433  and  _436
REMARK  169  A    between atoms: _436  and  _437
REMARK  170  A    between atoms: _437  and  _438
REMARK  171  A    between atoms: _440  and  _442
REMARK  172  A    between atoms: _442  and  _443
REMARK  173  A    between atoms: _442  and  _445
REMARK  174  A    between atoms: _445  and  _446
REMARK  175  A    between atoms: _451  and  _453
REMARK  176  A    between atoms: _453  and  _454
REMARK  177  A    between atoms: _457  and  _458
REMARK  178  A    between atoms: _463  and  _465
REMARK  179  A    between atoms: _465  and  _466
REMARK  180  A    between atoms: _465  and  _468
REMARK  181  A    between atoms: _468  and  _469
REMARK  182  A    between atoms: _479  and  _481
REMARK  183  A    between atoms: _481  and  _482
REMARK  184  A    between atoms: _486  and  _487
REMARK  185  A    between atoms: _492  and  _494
REMARK  186  A    between atoms: _494  and  _495
REMARK  187  A    between atoms: _494  and  _497
REMARK  188  A    between atoms: _497  and  _498
REMARK  189  A    between atoms: _498  and  _499
REMARK  190  A    between atoms: _504  and  _506
REMARK  191  A    between atoms: _506  and  _507
REMARK  192  A    between atoms: _509  and  _511
REMARK  193  A    between atoms: _511  and  _512
REMARK  194  A    between atoms: _514  and  _516
REMARK  195  A    between atoms: _516  and  _517
REMARK  196  A    between atoms: _516  and  _519
REMARK  197  A    between atoms: _519  and  _520
REMARK  198  A    between atoms: _530  and  _532
REMARK  199  A    between atoms: _532  and  _533
REMARK  200  A    between atoms: _532  and  _535
REMARK  201  A    between atoms: _535  and  _536
REMARK  202  A    between atoms: _539  and  _541
REMARK  203  A    between atoms: _541  and  _542
REMARK  204  A    between atoms: _541  and  _544
REMARK  205  A    between atoms: _544  and  _545
REMARK  206  A    between atoms: _548  and  _550
REMARK  207  A    between atoms: _550  and  _551
REMARK  208  A    between atoms: _550  and  _553
REMARK  209  A    between atoms: _553  and  _554
REMARK  210  A    between atoms: _554  and  _555
REMARK  211  A    between atoms: _555  and  _556
REMARK  212  A    between atoms: _565  and  _567
REMARK  213  A    between atoms: _567  and  _568
REMARK  214  A    between atoms: _567  and  _570
REMARK  215  A    between atoms: _570  and  _571
REMARK  216  A    between atoms: _581  and  _583
REMARK  217  A    between atoms: _583  and  _584
REMARK  218  A    between atoms: _586  and  _588
REMARK  219  A    between atoms: _588  and  _589
REMARK  220  A    between atoms: _588  and  _591
REMARK  221  A    between atoms: _591  and  _592
REMARK  222  A    between atoms: _597  and  _599
REMARK  223  A    between atoms: _599  and  _600
REMARK  224  A    between atoms: _603  and  _605
REMARK  225  A    between atoms: _605  and  _606
REMARK  226  A    between atoms: _605  and  _608
REMARK  227  A    between atoms: _608  and  _609
REMARK  228  A    between atoms: _612  and  _614
REMARK  229  A    between atoms: _614  and  _615
REMARK  230  A    between atoms: _614  and  _617
REMARK  231  A    between atoms: _617  and  _618
REMARK  232  A    between atoms: _624  and  _626
REMARK  233  A    between atoms: _626  and  _627
REMARK  234  A    between atoms: _626  and  _629
REMARK  235  A    between atoms: _629  and  _630
REMARK  236  A    between atoms: _630  and  _631
REMARK  237  A    between atoms: _635  and  _636
REMARK  238  A    between atoms: _641  and  _643
REMARK  239  A    between atoms: _643  and  _644
REMARK  240  A    between atoms: _643  and  _646
REMARK  241  A    between atoms: _646  and  _647
REMARK  242  A    between atoms: _647  and  _648
REMARK  243  A    between atoms: _648  and  _649
REMARK                            x       y       z     vdW  Elec       q    Type
REMARK                         _______ _______ _______ _____ _____    ______ ____
ROOT
ATOM      1  CG  LYS A   1      -0.260 -19.785  15.283  0.00  0.00    -0.000 C 
ENDROOT
BRANCH   1   2
ATOM      2  CB  LYS A   1      -0.699 -20.501  14.023  0.00  0.00    +0.025 C 
BRANCH   2   3
ATOM      3  CA  LYS A   1       0.153 -20.183  12.789  0.00  0.00    +0.133 C 
BRANCH   3   4
ATOM      4  N   LYS A   1       0.015 -18.775  12.377  0.00  0.00    -0.239 NA
ATOM      5  H   LYS A   1      -0.654 -18.156  12.878  0.00  0.00    +0.142 HD
ENDBRANCH   3   4
BRANCH   3   6
ATOM      6  C   LYS A   1      -0.197 -21.158  11.673  0.00  0.00    +0.224 C 
ATOM      7  O   LYS A   1       0.481 -22.175  11.515  0.00  0.00    -0.287 OA
ENDBRANCH   3   6
ENDBRANCH   2   3
ENDBRANCH   1   2
BRANCH   1   8
ATOM      8  CD  LYS A   1      -0.978 -20.347  16.498  0.00  0.00    -0.024 C 
BRANCH   8   9
ATOM      9  CE  LYS A   1      -0.463 -19.663  17.749  0.00  0.00    -0.086 C 
BRANCH   9  10
ATOM     10  NZ  LYS A   1      -0.987 -20.339  18.976  0.00  0.00    +0.380 N 
ATOM     11  HZ1 LYS A   1      -0.622 -19.854  19.820  0.00  0.00    -0.089 HD
ATOM     12  HZ2 LYS A   1      -0.676 -21.331  18.983  0.00  0.00    -0.089 HD
ATOM     13  HZ3 LYS A   1      -2.026 -20.300  18.975  0.00  0.00    -0.089 HD
ENDBRANCH   9  10
ENDBRANCH   8   9
ENDBRANCH   1   8
TORSDOF 7
REMARK  Name = ../refined-set-2016/3k02/3k02_pocket.pdb
REMARK  243 active torsions:
REMARK  status: ('A' for Active; 'I' for Inactive)
REMARK    1  A    between atoms: _1  and  _3
REMARK    2  A    between atoms: _3  and  _4
REMARK    3  A    between atoms: _3  and  _6
REMARK    4  A    between atoms: _6  and  _7
REMARK    5  A    between atoms: _10  and  _12
REMARK    6  A    between atoms: _12  and  _13
REMARK    7  A    between atoms: _12  and  _15
REMARK    8  A    between atoms: _15  and  _16
REMARK    9  A    between atoms: _19  and  _21
REMARK   10  A    between atoms: _21  and  _22
REMARK   11  A    between atoms: _21  and  _24
REMARK   12  A    between atoms: _24  and  _25
REMARK   13  A    between atoms: _27  and  _29
REMARK   14  A    between atoms: _29  and  _30
REMARK   15  A    between atoms: _29  and  _32
REMARK   16  A    between atoms: _32  and  _33
REMARK   17  A    between atoms: _38  and  _40
REMARK   18  A    between atoms: _40  and  _41
REMARK   19  A    between atoms: _40  and  _43
REMARK   20  A    between atoms: _43  and  _44
REMARK   21  A    between atoms: _44  and  _45
REMARK   22  A    between atoms: _48  and  _50
REMARK   23  A    between atoms: _50  and  _51
REMARK   24  A    between atoms: _54  and  _56
REMARK   25  A    between atoms: _56  and  _57
REMARK   26  A    between atoms: _56  and  _59
REMARK   27  A    between atoms: _59  and  _60
REMARK   28  A    between atoms: _60  and  _61
REMARK   29  A    between atoms: _64  and  _66
REMARK   30  A    between atoms: _66  and  _67
REMARK   31  A    between atoms: _66  and  _69
REMARK   32  A    between atoms: _69  and  _70
REMARK   33  A    between atoms: _70  and  _71
REMARK   34  A    between atoms: _71  and  _72
REMARK   35  A    between atoms: _72  and  _73
REMARK   36  A    between atoms: _77  and  _79
REMARK   37  A    between atoms: _79  and  _80
REMARK   38  A    between atoms: _79  and  _82
REMARK   39  A    between atoms: _82  and  _83
REMARK   40  A    between atoms: _88  and  _89
REMARK   41  A    between atoms: _91  and  _93
REMARK   42  A    between atoms: _93  and  _94
REMARK   43  A    between atoms: _93  and  _96
REMARK   44  A    between atoms: _96  and  _97
REMARK   45  A    between atoms: _102  and  _104
REMARK   46  A    between atoms: _104  and  _105
REMARK   47  A    between atoms: _104  and  _107
REMARK   48  A    between atoms: _111  and  _112
REMARK   49  A    between atoms: _117  and  _119
REMARK   50  A    between atoms: _119  and  _120
REMARK   51  A    between atoms: _119  and  _122
REMARK   52  A    between atoms: _122  and  _123
REMARK   53  A    between atoms: _129  and  _131
REMARK   54  A    between atoms: _131  and  _132
REMARK   55  A    between atoms: _134  and  _136
REMARK   56  A    between atoms: _136  and  _137
REMARK   57  A    between atoms: _136  and  _139
REMARK   58  A    between atoms: _139  and  _140
REMARK   59  A    between atoms: _140  and  _141
REMARK   60  A    between atoms: _144  and  _146
REMARK   61  A    between atoms: _146  and  _147
REMARK   62  A    between atoms: _150  and  _152
REMARK   63  A    between atoms: _152  and  _153
REMARK   64  A    between atoms: _152  and  _155
REMARK   65  A    between atoms: _155  and  _156
REMARK   66  A    between atoms: _161  and  _163
REMARK   67  A    between atoms: _163  and  _164
REMARK   68  A    between atoms: _167  and  _169
REMARK   69  A    between atoms: _169  and  _170
REMARK   70  A    between atoms: _169  and  _172
REMARK   71  A    between atoms: _172  and  _173
REMARK   72  A    between atoms: _173  and  _174
REMARK   73  A    between atoms: _174  and  _175
REMARK   74  A    between atoms: _175  and  _176
REMARK   75  A    between atoms: _180  and  _182
REMARK   76  A    between atoms: _182  and  _183
REMARK   77  A    between atoms: _182  and  _185
REMARK   78  A    between atoms: _185  and  _186
REMARK   79  A    between atoms: _186  and  _187
REMARK   80  A    between atoms: _187  and  _188
REMARK   81  A    between atoms: _197  and  _199
REMARK   82  A    between atoms: _199  and  _200
REMARK   83  A    between atoms: _199  and  _202
REMARK   84  A    between atoms: _202  and  _203
REMARK   85  A    between atoms: _203  and  _204
REMARK   86  A    between atoms: _207  and  _209
REMARK   87  A    between atoms: _209  and  _210
REMARK   88  A    between atoms: _209  and  _212
REMARK   89  A    between atoms: _215  and  _217
REMARK   90  A    between atoms: _217  and  _218
REMARK   91  A    between atoms: _221  and  _223
REMARK   92  A    between atoms: _223  and  _224
REMARK   93  A    between atoms: _223  and  _226
REMARK   94  A    between atoms: _226  and  _227
REMARK   95  A    between atoms: _237  and  _239
REMARK   96  A    between atoms: _239  and  _240
REMARK   97  A    between atoms: _239  and  _242
REMARK   98  A    between atoms: _245  and  _247
REMARK   99  A    between atoms: _247  and  _248
REMARK  100  A    between atoms: _247  and  _250
REMARK  101  A    between atoms: _250  and  _251
REMARK  102  A    between atoms: _254  and  _256
REMARK  103  A    between atoms: _256  and  _257
REMARK  104  A    between atoms: _256  and  _259
REMARK  105  A    between atoms: _259  and  _260
REMARK  106  A    between atoms: _266  and  _268
REMARK  107  A    between atoms: _268  and  _269
REMARK  108  A    between atoms: _268  and  _271
REMARK  109  A    between atoms: _271  and  _272
REMARK  110  A    between atoms: _272  and  _273
REMARK  111  A    between atoms: _278  and  _280
REMARK  112  A    between atoms: _280  and  _281
REMARK  113  A    between atoms: _280  and  _283
REMARK  114  A    between atoms: _286  and  _288
REMARK  115  A    between atoms: _288  and  _289
REMARK  116  A    between atoms: _288  and  _291
REMARK  117  A    between atoms: _291  and  _292
REMARK  118  A    between atoms: _295  and  _297
REMARK  119  A    between atoms: _297  and  _298
REMARK  120  A    between atoms: _297  and  _300
REMARK  121  A    between atoms: _300  and  _301
REMARK  122  A    between atoms: _304  and  _306
REMARK  123  A    between atoms: _306  and  _307
REMARK  124  A    between atoms: _306  and  _309
REMARK  125  A    between atoms: _309  and  _310
REMARK  126  A    between atoms: _313  and  _315
REMARK  127  A    between atoms: _315  and  _316
REMARK  128  A    between atoms: _315  and  _318
REMARK  129  A    between atoms: _318  and  _319
REMARK  130  A    between atoms: _322  and  _324
REMARK  131  A    between atoms: _324  and  _325
REMARK  132  A    between atoms: _324  and  _327
REMARK  133  A    between atoms: _327  and  _328
REMARK  134  A    between atoms: _328  and  _329
REMARK  135  A    between atoms: _329  and  _330
REMARK  136  A    between atoms: _339  and  _341
REMARK  137  A    between atoms: _341  and  _342
REMARK  138  A    between atoms: _341  and  _344
REMARK  139  A    between atoms: _344  and  _345
REMARK  140  A    between atoms: _348  and  _350
REMARK  141  A    between atoms: _350  and  _351
REMARK  142  A    between atoms: _350  and  _353
REMARK  143  A    between atoms: _353  and  _354
REMARK  144  A    between atoms: _358  and  _359
REMARK  145  A    between atoms: _364  and  _366
REMARK  146  A    between atoms: _366  and  _367
REMARK  147  A    between atoms: _366  and  _369
REMARK  148  A    between atoms: _369  and  _370
REMARK  149  A    between atoms: _375  and  _376
REMARK  150  A    between atoms: _378  and  _380
REMARK  151  A    between atoms: _380  and  _381
REMARK  152  A    between atoms: _380  and  _383
REMARK  153  A    between atoms: _383  and  _384
REMARK  154  A    between atoms: _394  and  _396
REMARK  155  A    between atoms: _396  and  _397
REMARK  156  A    between atoms: _396  and  _399
REMARK  157  A    between atoms: _399  and  _400
REMARK  158  A    between atoms: _406  and  _408
REMARK  159  A    between atoms: _408  and  _409
REMARK  160  A    between atoms: _408  and  _411
REMARK  161  A    between atoms: _411  and  _412
REMARK  162  A    between atoms: _415  and  _417
REMARK  163  A    between atoms: _417  and  _418
REMARK  164  A    between atoms: _417  and  _420
REMARK  165  A    between atoms: _420  and  _421
REMARK  166  A    between atoms: _431  and  _433
REMARK  167  A    between atoms: _433  and  _434
REMARK  168  A    between atoms: _433  and  _436
REMARK  169  A    between atoms: _436  and  _437
REMARK  170  A    between atoms: _437  and  _438
REMARK  171  A    between atoms: _440  and  _442
REMARK  172  A    between atoms: _442  and  _443
REMARK  173  A    between atoms: _442  and  _445
REMARK  174  A    between atoms: _445  and  _446
REMARK  175  A    between atoms: _451  and  _453
REMARK  176  A    between atoms: _453  and  _454
REMARK  177  A    between atoms: _457  and  _458
REMARK  178  A    between atoms: _463  and  _465
REMARK  179  A    between atoms: _465  and  _466
REMARK  180  A    between atoms: _465  and  _468
REMARK  181  A    between atoms: _468  and  _469
REMARK  182  A    between atoms: _479  and  _481
REMARK  183  A    between atoms: _481  and  _482
REMARK  184  A    between atoms: _486  and  _487
REMARK  185  A    between atoms: _492  and  _494
REMARK  186  A    between atoms: _494  and  _495
REMARK  187  A    between atoms: _494  and  _497
REMARK  188  A    between atoms: _497  and  _498
REMARK  189  A    between atoms: _498  and  _499
REMARK  190  A    between atoms: _504  and  _506
REMARK  191  A    between atoms: _506  and  _507
REMARK  192  A    between atoms: _509  and  _511
REMARK  193  A    between atoms: _511  and  _512
REMARK  194  A    between atoms: _514  and  _516
REMARK  195  A    between atoms: _516  and  _517
REMARK  196  A    between atoms: _516  and  _519
REMARK  197  A    between atoms: _519  and  _520
REMARK  198  A    between atoms: _530  and  _532
REMARK  199  A    between atoms: _532  and  _533
REMARK  200  A    between atoms: _532  and  _535
REMARK  201  A    between atoms: _535  and  _536
REMARK  202  A    between atoms: _539  and  _541
REMARK  203  A    between atoms: _541  and  _542
REMARK  204  A    between atoms: _541  and  _544
REMARK  205  A    between atoms: _544  and  _545
REMARK  206  A    between atoms: _548  and  _550
REMARK  207  A    between atoms: _550  and  _551
REMARK  208  A    between atoms: _550  and  _553
REMARK  209  A    between atoms: _553  and  _554
REMARK  210  A    between atoms: _554  and  _555
REMARK  211  A    between atoms: _555  and  _556
REMARK  212  A    between atoms: _565  and  _567
REMARK  213  A    between atoms: _567  and  _568
REMARK  214  A    between atoms: _567  and  _570
REMARK  215  A    between atoms: _570  and  _571
REMARK  216  A    between atoms: _581  and  _583
REMARK  217  A    between atoms: _583  and  _584
REMARK  218  A    between atoms: _586  and  _588
REMARK  219  A    between atoms: _588  and  _589
REMARK  220  A    between atoms: _588  and  _591
REMARK  221  A    between atoms: _591  and  _592
REMARK  222  A    between atoms: _597  and  _599
REMARK  223  A    between atoms: _599  and  _600
REMARK  224  A    between atoms: _603  and  _605
REMARK  225  A    between atoms: _605  and  _606
REMARK  226  A    between atoms: _605  and  _608
REMARK  227  A    between atoms: _608  and  _609
REMARK  228  A    between atoms: _612  and  _614
REMARK  229  A    between atoms: _614  and  _615
REMARK  230  A    between atoms: _614  and  _617
REMARK  231  A    between atoms: _617  and  _618
REMARK  232  A    between atoms: _624  and  _626
REMARK  233  A    between atoms: _626  and  _627
REMARK  234  A    between atoms: _626  and  _629
REMARK  235  A    between atoms: _629  and  _630
REMARK  236  A    between atoms: _630  and  _631
REMARK  237  A    between atoms: _635  and  _636
REMARK  238  A    between atoms: _641  and  _643
REMARK  239  A    between atoms: _643  and  _644
REMARK  240  A    between atoms: _643  and  _646
REMARK  241  A    between atoms: _646  and  _647
REMARK  242  A    between atoms: _647  and  _648
REMARK  243  A    between atoms: _648  and  _649
REMARK                            x       y       z     vdW  Elec       q    Type
REMARK                         _______ _______ _______ _____ _____    ______ ____
ROOT
ATOM      1  NE  ARG A   1       2.430  -3.192  14.571  0.00  0.00    -0.265 N 
ATOM      2  CZ  ARG A   1       1.405  -2.440  14.960  0.00  0.00    +0.342 C 
ATOM      3  NH2 ARG A   1       1.647  -1.284  15.551  0.00  0.00    -0.292 N 
ATOM      4 HH21 ARG A   1       0.857  -0.683  15.862  0.00  0.00    +0.255 HD
ATOM      5 HH22 ARG A   1       2.628  -0.974  15.706  0.00  0.00    +0.255 HD
ATOM      6  NH1 ARG A   1       0.151  -2.865  14.749  0.00  0.00    -0.292 N 
ATOM      7 HH11 ARG A   1      -0.654  -2.280  15.052  0.00  0.00    +0.255 HD
ATOM      8 HH12 ARG A   1      -0.017  -3.779  14.283  0.00  0.00    +0.255 HD
ATOM      9  HE  ARG A   1       3.392  -2.859  14.783  0.00  0.00    +0.259 HD
ENDROOT
BRANCH   1  10
ATOM     10  CD  ARG A   1       2.279  -4.463  13.861  0.00  0.00    +0.174 C 
BRANCH  10  11
ATOM     11  CG  ARG A   1       3.552  -5.298  13.873  0.00  0.00    +0.045 C 
BRANCH  11  12
ATOM     12  CB  ARG A   1       3.445  -6.509  12.946  0.00  0.00    +0.029 C 
BRANCH  12  13
ATOM     13  CA  ARG A   1       4.333  -7.676  13.399  0.00  0.00    +0.133 C 
BRANCH  13  14
ATOM     14  N   ARG A   1       4.645  -8.584  12.294  0.00  0.00    -0.239 NA
ATOM     15  H   ARG A   1       4.114  -8.521  11.402  0.00  0.00    +0.142 HD
ENDBRANCH  13  14
BRANCH  13  16
ATOM     16  C   ARG A   1       3.651  -8.515  14.470  0.00  0.00    +0.224 C 
ATOM     17  O   ARG A   1       2.572  -9.089  14.241  0.00  0.00    -0.287 OA
ENDBRANCH  13  16
ENDBRANCH  12  13
ENDBRANCH  11  12
ENDBRANCH  10  11
ENDBRANCH   1  10
TORSDOF 6
REMARK  Name = ../refined-set-2016/3k02/3k02_pocket.pdb
REMARK  243 active torsions:
REMARK  status: ('A' for Active; 'I' for Inactive)
REMARK    1  A    between atoms: _1  and  _3
REMARK    2  A    between atoms: _3  and  _4
REMARK    3  A    between atoms: _3  and  _6
REMARK    4  A    between atoms: _6  and  _7
REMARK    5  A    between atoms: _10  and  _12
REMARK    6  A    between atoms: _12  and  _13
REMARK    7  A    between atoms: _12  and  _15
REMARK    8  A    between atoms: _15  and  _16
REMARK    9  A    between atoms: _19  and  _21
REMARK   10  A    between atoms: _21  and  _22
REMARK   11  A    between atoms: _21  and  _24
REMARK   12  A    between atoms: _24  and  _25
REMARK   13  A    between atoms: _27  and  _29
REMARK   14  A    between atoms: _29  and  _30
REMARK   15  A    between atoms: _29  and  _32
REMARK   16  A    between atoms: _32  and  _33
REMARK   17  A    between atoms: _38  and  _40
REMARK   18  A    between atoms: _40  and  _41
REMARK   19  A    between atoms: _40  and  _43
REMARK   20  A    between atoms: _43  and  _44
REMARK   21  A    between atoms: _44  and  _45
REMARK   22  A    between atoms: _48  and  _50
REMARK   23  A    between atoms: _50  and  _51
REMARK   24  A    between atoms: _54  and  _56
REMARK   25  A    between atoms: _56  and  _57
REMARK   26  A    between atoms: _56  and  _59
REMARK   27  A    between atoms: _59  and  _60
REMARK   28  A    between atoms: _60  and  _61
REMARK   29  A    between atoms: _64  and  _66
REMARK   30  A    between atoms: _66  and  _67
REMARK   31  A    between atoms: _66  and  _69
REMARK   32  A    between atoms: _69  and  _70
REMARK   33  A    between atoms: _70  and  _71
REMARK   34  A    between atoms: _71  and  _72
REMARK   35  A    between atoms: _72  and  _73
REMARK   36  A    between atoms: _77  and  _79
REMARK   37  A    between atoms: _79  and  _80
REMARK   38  A    between atoms: _79  and  _82
REMARK   39  A    between atoms: _82  and  _83
REMARK   40  A    between atoms: _88  and  _89
REMARK   41  A    between atoms: _91  and  _93
REMARK   42  A    between atoms: _93  and  _94
REMARK   43  A    between atoms: _93  and  _96
REMARK   44  A    between atoms: _96  and  _97
REMARK   45  A    between atoms: _102  and  _104
REMARK   46  A    between atoms: _104  and  _105
REMARK   47  A    between atoms: _104  and  _107
REMARK   48  A    between atoms: _111  and  _112
REMARK   49  A    between atoms: _117  and  _119
REMARK   50  A    between atoms: _119  and  _120
REMARK   51  A    between atoms: _119  and  _122
REMARK   52  A    between atoms: _122  and  _123
REMARK   53  A    between atoms: _129  and  _131
REMARK   54  A    between atoms: _131  and  _132
REMARK   55  A    between atoms: _134  and  _136
REMARK   56  A    between atoms: _136  and  _137
REMARK   57  A    between atoms: _136  and  _139
REMARK   58  A    between atoms: _139  and  _140
REMARK   59  A    between atoms: _140  and  _141
REMARK   60  A    between atoms: _144  and  _146
REMARK   61  A    between atoms: _146  and  _147
REMARK   62  A    between atoms: _150  and  _152
REMARK   63  A    between atoms: _152  and  _153
REMARK   64  A    between atoms: _152  and  _155
REMARK   65  A    between atoms: _155  and  _156
REMARK   66  A    between atoms: _161  and  _163
REMARK   67  A    between atoms: _163  and  _164
REMARK   68  A    between atoms: _167  and  _169
REMARK   69  A    between atoms: _169  and  _170
REMARK   70  A    between atoms: _169  and  _172
REMARK   71  A    between atoms: _172  and  _173
REMARK   72  A    between atoms: _173  and  _174
REMARK   73  A    between atoms: _174  and  _175
REMARK   74  A    between atoms: _175  and  _176
REMARK   75  A    between atoms: _180  and  _182
REMARK   76  A    between atoms: _182  and  _183
REMARK   77  A    between atoms: _182  and  _185
REMARK   78  A    between atoms: _185  and  _186
REMARK   79  A    between atoms: _186  and  _187
REMARK   80  A    between atoms: _187  and  _188
REMARK   81  A    between atoms: _197  and  _199
REMARK   82  A    between atoms: _199  and  _200
REMARK   83  A    between atoms: _199  and  _202
REMARK   84  A    between atoms: _202  and  _203
REMARK   85  A    between atoms: _203  and  _204
REMARK   86  A    between atoms: _207  and  _209
REMARK   87  A    between atoms: _209  and  _210
REMARK   88  A    between atoms: _209  and  _212
REMARK   89  A    between atoms: _215  and  _217
REMARK   90  A    between atoms: _217  and  _218
REMARK   91  A    between atoms: _221  and  _223
REMARK   92  A    between atoms: _223  and  _224
REMARK   93  A    between atoms: _223  and  _226
REMARK   94  A    between atoms: _226  and  _227
REMARK   95  A    between atoms: _237  and  _239
REMARK   96  A    between atoms: _239  and  _240
REMARK   97  A    between atoms: _239  and  _242
REMARK   98  A    between atoms: _245  and  _247
REMARK   99  A    between atoms: _247  and  _248
REMARK  100  A    between atoms: _247  and  _250
REMARK  101  A    between atoms: _250  and  _251
REMARK  102  A    between atoms: _254  and  _256
REMARK  103  A    between atoms: _256  and  _257
REMARK  104  A    between atoms: _256  and  _259
REMARK  105  A    between atoms: _259  and  _260
REMARK  106  A    between atoms: _266  and  _268
REMARK  107  A    between atoms: _268  and  _269
REMARK  108  A    between atoms: _268  and  _271
REMARK  109  A    between atoms: _271  and  _272
REMARK  110  A    between atoms: _272  and  _273
REMARK  111  A    between atoms: _278  and  _280
REMARK  112  A    between atoms: _280  and  _281
REMARK  113  A    between atoms: _280  and  _283
REMARK  114  A    between atoms: _286  and  _288
REMARK  115  A    between atoms: _288  and  _289
REMARK  116  A    between atoms: _288  and  _291
REMARK  117  A    between atoms: _291  and  _292
REMARK  118  A    between atoms: _295  and  _297
REMARK  119  A    between atoms: _297  and  _298
REMARK  120  A    between atoms: _297  and  _300
REMARK  121  A    between atoms: _300  and  _301
REMARK  122  A    between atoms: _304  and  _306
REMARK  123  A    between atoms: _306  and  _307
REMARK  124  A    between atoms: _306  and  _309
REMARK  125  A    between atoms: _309  and  _310
REMARK  126  A    between atoms: _313  and  _315
REMARK  127  A    between atoms: _315  and  _316
REMARK  128  A    between atoms: _315  and  _318
REMARK  129  A    between atoms: _318  and  _319
REMARK  130  A    between atoms: _322  and  _324
REMARK  131  A    between atoms: _324  and  _325
REMARK  132  A    between atoms: _324  and  _327
REMARK  133  A    between atoms: _327  and  _328
REMARK  134  A    between atoms: _328  and  _329
REMARK  135  A    between atoms: _329  and  _330
REMARK  136  A    between atoms: _339  and  _341
REMARK  137  A    between atoms: _341  and  _342
REMARK  138  A    between atoms: _341  and  _344
REMARK  139  A    between atoms: _344  and  _345
REMARK  140  A    between atoms: _348  and  _350
REMARK  141  A    between atoms: _350  and  _351
REMARK  142  A    between atoms: _350  and  _353
REMARK  143  A    between atoms: _353  and  _354
REMARK  144  A    between atoms: _358  and  _359
REMARK  145  A    between atoms: _364  and  _366
REMARK  146  A    between atoms: _366  and  _367
REMARK  147  A    between atoms: _366  and  _369
REMARK  148  A    between atoms: _369  and  _370
REMARK  149  A    between atoms: _375  and  _376
REMARK  150  A    between atoms: _378  and  _380
REMARK  151  A    between atoms: _380  and  _381
REMARK  152  A    between atoms: _380  and  _383
REMARK  153  A    between atoms: _383  and  _384
REMARK  154  A    between atoms: _394  and  _396
REMARK  155  A    between atoms: _396  and  _397
REMARK  156  A    between atoms: _396  and  _399
REMARK  157  A    between atoms: _399  and  _400
REMARK  158  A    between atoms: _406  and  _408
REMARK  159  A    between atoms: _408  and  _409
REMARK  160  A    between atoms: _408  and  _411
REMARK  161  A    between atoms: _411  and  _412
REMARK  162  A    between atoms: _415  and  _417
REMARK  163  A    between atoms: _417  and  _418
REMARK  164  A    between atoms: _417  and  _420
REMARK  165  A    between atoms: _420  and  _421
REMARK  166  A    between atoms: _431  and  _433
REMARK  167  A    between atoms: _433  and  _434
REMARK  168  A    between atoms: _433  and  _436
REMARK  169  A    between atoms: _436  and  _437
REMARK  170  A    between atoms: _437  and  _438
REMARK  171  A    between atoms: _440  and  _442
REMARK  172  A    between atoms: _442  and  _443
REMARK  173  A    between atoms: _442  and  _445
REMARK  174  A    between atoms: _445  and  _446
REMARK  175  A    between atoms: _451  and  _453
REMARK  176  A    between atoms: _453  and  _454
REMARK  177  A    between atoms: _457  and  _458
REMARK  178  A    between atoms: _463  and  _465
REMARK  179  A    between atoms: _465  and  _466
REMARK  180  A    between atoms: _465  and  _468
REMARK  181  A    between atoms: _468  and  _469
REMARK  182  A    between atoms: _479  and  _481
REMARK  183  A    between atoms: _481  and  _482
REMARK  184  A    between atoms: _486  and  _487
REMARK  185  A    between atoms: _492  and  _494
REMARK  186  A    between atoms: _494  and  _495
REMARK  187  A    between atoms: _494  and  _497
REMARK  188  A    between atoms: _497  and  _498
REMARK  189  A    between atoms: _498  and  _499
REMARK  190  A    between atoms: _504  and  _506
REMARK  191  A    between atoms: _506  and  _507
REMARK  192  A    between atoms: _509  and  _511
REMARK  193  A    between atoms: _511  and  _512
REMARK  194  A    between atoms: _514  and  _516
REMARK  195  A    between atoms: _516  and  _517
REMARK  196  A    between atoms: _516  and  _519
REMARK  197  A    between atoms: _519  and  _520
REMARK  198  A    between atoms: _530  and  _532
REMARK  199  A    between atoms: _532  and  _533
REMARK  200  A    between atoms: _532  and  _535
REMARK  201  A    between atoms: _535  and  _536
REMARK  202  A    between atoms: _539  and  _541
REMARK  203  A    between atoms: _541  and  _542
REMARK  204  A    between atoms: _541  and  _544
REMARK  205  A    between atoms: _544  and  _545
REMARK  206  A    between atoms: _548  and  _550
REMARK  207  A    between atoms: _550  and  _551
REMARK  208  A    between atoms: _550  and  _553
REMARK  209  A    between atoms: _553  and  _554
REMARK  210  A    between atoms: _554  and  _555
REMARK  211  A    between atoms: _555  and  _556
REMARK  212  A    between atoms: _565  and  _567
REMARK  213  A    between atoms: _567  and  _568
REMARK  214  A    between atoms: _567  and  _570
REMARK  215  A    between atoms: _570  and  _571
REMARK  216  A    between atoms: _581  and  _583
REMARK  217  A    between atoms: _583  and  _584
REMARK  218  A    between atoms: _586  and  _588
REMARK  219  A    between atoms: _588  and  _589
REMARK  220  A    between atoms: _588  and  _591
REMARK  221  A    between atoms: _591  and  _592
REMARK  222  A    between atoms: _597  and  _599
REMARK  223  A    between atoms: _599  and  _600
REMARK  224  A    between atoms: _603  and  _605
REMARK  225  A    between atoms: _605  and  _606
REMARK  226  A    between atoms: _605  and  _608
REMARK  227  A    between atoms: _608  and  _609
REMARK  228  A    between atoms: _612  and  _614
REMARK  229  A    between atoms: _614  and  _615
REMARK  230  A    between atoms: _614  and  _617
REMARK  231  A    between atoms: _617  and  _618
REMARK  232  A    between atoms: _624  and  _626
REMARK  233  A    between atoms: _626  and  _627
REMARK  234  A    between atoms: _626  and  _629
REMARK  235  A    between atoms: _629  and  _630
REMARK  236  A    between atoms: _630  and  _631
REMARK  237  A    between atoms: _635  and  _636
REMARK  238  A    between atoms: _641  and  _643
REMARK  239  A    between atoms: _643  and  _644
REMARK  240  A    between atoms: _643  and  _646
REMARK  241  A    between atoms: _646  and  _647
REMARK  242  A    between atoms: _647  and  _648
REMARK  243  A    between atoms: _648  and  _649
REMARK                            x       y       z     vdW  Elec       q    Type
REMARK                         _______ _______ _______ _____ _____    ______ ____
ROOT
ATOM      1  C   ALA A   3       1.834 -12.916  23.029  0.00  0.00    +0.241 C 
ATOM      2  O   ALA A   3       1.878 -14.087  23.422  0.00  0.00    -0.273 OA
ATOM      3  N   TRP A   4       1.996 -12.576  21.748  0.00  0.00    -0.297 N 
ATOM      4  H   TRP A   4       1.963 -11.573  21.474  0.00  0.00    +0.150 HD
ENDROOT
BRANCH   1   5
ATOM      5  CA  ALA A   3       1.555 -11.773  24.014  0.00  0.00    +0.149 C 
ATOM      6  CB  ALA A   3       0.092 -11.791  24.450  0.00  0.00    +0.031 C 
BRANCH   5   9
ATOM      7  C   VAL A   2       3.172 -10.021  23.454  0.00  0.00    +0.241 C 
ATOM      8  O   VAL A   2       4.118 -10.733  23.813  0.00  0.00    -0.273 OA
ATOM      9  N   ALA A   3       1.908 -10.445  23.491  0.00  0.00    -0.297 N 
ATOM     10  H   ALA A   3       1.153  -9.821  23.141  0.00  0.00    +0.150 HD
BRANCH   7  11
ATOM     11  CA  VAL A   2       3.430  -8.597  22.916  0.00  0.00    +0.148 C 
BRANCH  11  13
ATOM     12  C   GLU A   1       2.501  -9.032  20.716  0.00  0.00    +0.238 C 
ATOM     13  N   VAL A   2       2.586  -8.231  21.771  0.00  0.00    -0.297 N 
ATOM     14  H   VAL A   2       2.052  -7.339  21.787  0.00  0.00    +0.150 HD
ATOM     15  O   GLU A   1       3.082 -10.123  20.676  0.00  0.00    -0.274 OA
BRANCH  12  16
ATOM     16  CA  GLU A   1       1.694  -8.529  19.517  0.00  0.00    +0.145 C 
BRANCH  16  17
ATOM     17  N   GLU A   1       2.264  -9.151  18.310  0.00  0.00    -0.238 NA
ATOM     18  H   GLU A   1       1.671  -9.789  17.741  0.00  0.00    +0.142 HD
ENDBRANCH  16  17
BRANCH  16  19
ATOM     19  CB  GLU A   1       0.207  -8.895  19.651  0.00  0.00    +0.038 C 
BRANCH  19  20
ATOM     20  CG  GLU A   1      -0.656  -7.887  20.420  0.00  0.00    +0.116 C 
BRANCH  20  21
ATOM     21  CD  GLU A   1      -0.663  -8.067  21.917  0.00  0.00    +0.365 C 
ATOM     22  OE2 GLU A   1      -0.942  -7.050  22.607  0.00  0.00    -0.246 OA
ATOM     23  OE1 GLU A   1      -0.469  -9.189  22.433  0.00  0.00    -0.246 OA
ENDBRANCH  20  21
ENDBRANCH  19  20
ENDBRANCH  16  19
ENDBRANCH  12  16
ENDBRANCH  11  13
BRANCH  11  24
ATOM     24  CB  VAL A   2       3.363  -7.521  24.049  0.00  0.00    +0.027 C 
ATOM     25  CG2 VAL A   2       1.914  -7.191  24.409  0.00  0.00    +0.002 C 
ATOM     26  CG1 VAL A   2       4.065  -6.264  23.599  0.00  0.00    +0.002 C 
ENDBRANCH  11  24
ENDBRANCH   7  11
ENDBRANCH   5   9
ENDBRANCH   1   5
BRANCH   3  27
ATOM     27  CA  TRP A   4       2.219 -13.595  20.728  0.00  0.00    +0.153 C 
BRANCH  27  28
ATOM     28  C   TRP A   4       3.646 -14.091  20.679  0.00  0.00    +0.241 C 
ATOM     29  N   VAL A   5       4.589 -13.329  21.230  0.00  0.00    -0.298 N 
ATOM     30  H   VAL A   5       4.338 -12.470  21.759  0.00  0.00    +0.150 HD
ATOM     31  O   TRP A   4       3.906 -15.147  20.106  0.00  0.00    -0.273 OA
BRANCH  29  32
ATOM     32  CA  VAL A   5       5.986 -13.730  21.073  0.00  0.00    +0.137 C 
BRANCH  32  33
ATOM     33  CB  VAL A   5       6.967 -12.712  21.660  0.00  0.00    +0.026 C 
ATOM     34  CG2 VAL A   5       8.420 -13.233  21.521  0.00  0.00    +0.002 C 
ATOM     35  CG1 VAL A   5       6.776 -11.333  20.978  0.00  0.00    +0.002 C 
ENDBRANCH  32  33
BRANCH  32  36
ATOM     36  C   VAL A   5       6.213 -15.095  21.728  0.00  0.00    +0.227 C 
ATOM     37  O   VAL A   5       6.752 -16.017  21.094  0.00  0.00    -0.286 OA
ENDBRANCH  32  36
ENDBRANCH  29  32
ENDBRANCH  27  28
BRANCH  27  38
ATOM     38  CB  TRP A   4       1.846 -13.098  19.333  0.00  0.00    +0.057 C 
BRANCH  38  39
ATOM     39  CG  TRP A   4       0.439 -12.627  19.176  0.00  0.00    -0.002 A 
ATOM     40  CD1 TRP A   4      -0.577 -12.726  20.086  0.00  0.00    +0.068 A 
ATOM     41  NE1 TRP A   4      -1.728 -12.175  19.579  0.00  0.00    -0.352 N 
ATOM     42  HE1 TRP A   4      -2.638 -12.109  20.077  0.00  0.00    +0.166 HD
ATOM     43  CE2 TRP A   4      -1.479 -11.726  18.307  0.00  0.00    +0.056 A 
ATOM     44  CZ2 TRP A   4      -2.326 -11.086  17.397  0.00  0.00    +0.017 A 
ATOM     45  CH2 TRP A   4      -1.796 -10.742  16.185  0.00  0.00    +0.001 A 
ATOM     46  CZ3 TRP A   4      -0.450 -11.000  15.862  0.00  0.00    +0.000 A 
ATOM     47  CE3 TRP A   4       0.400 -11.624  16.773  0.00  0.00    +0.001 A 
ATOM     48  CD2 TRP A   4      -0.118 -12.003  18.016  0.00  0.00    +0.013 A 
ENDBRANCH  38  39
ENDBRANCH  27  38
ENDBRANCH   3  27
TORSDOF 17
REMARK  Name = ../refined-set-2016/3k02/3k02_pocket.pdb
REMARK  243 active torsions:
REMARK  status: ('A' for Active; 'I' for Inactive)
REMARK    1  A    between atoms: _1  and  _3
REMARK    2  A    between atoms: _3  and  _4
REMARK    3  A    between atoms: _3  and  _6
REMARK    4  A    between atoms: _6  and  _7
REMARK    5  A    between atoms: _10  and  _12
REMARK    6  A    between atoms: _12  and  _13
REMARK    7  A    between atoms: _12  and  _15
REMARK    8  A    between atoms: _15  and  _16
REMARK    9  A    between atoms: _19  and  _21
REMARK   10  A    between atoms: _21  and  _22
REMARK   11  A    between atoms: _21  and  _24
REMARK   12  A    between atoms: _24  and  _25
REMARK   13  A    between atoms: _27  and  _29
REMARK   14  A    between atoms: _29  and  _30
REMARK   15  A    between atoms: _29  and  _32
REMARK   16  A    between atoms: _32  and  _33
REMARK   17  A    between atoms: _38  and  _40
REMARK   18  A    between atoms: _40  and  _41
REMARK   19  A    between atoms: _40  and  _43
REMARK   20  A    between atoms: _43  and  _44
REMARK   21  A    between atoms: _44  and  _45
REMARK   22  A    between atoms: _48  and  _50
REMARK   23  A    between atoms: _50  and  _51
REMARK   24  A    between atoms: _54  and  _56
REMARK   25  A    between atoms: _56  and  _57
REMARK   26  A    between atoms: _56  and  _59
REMARK   27  A    between atoms: _59  and  _60
REMARK   28  A    between atoms: _60  and  _61
REMARK   29  A    between atoms: _64  and  _66
REMARK   30  A    between atoms: _66  and  _67
REMARK   31  A    between atoms: _66  and  _69
REMARK   32  A    between atoms: _69  and  _70
REMARK   33  A    between atoms: _70  and  _71
REMARK   34  A    between atoms: _71  and  _72
REMARK   35  A    between atoms: _72  and  _73
REMARK   36  A    between atoms: _77  and  _79
REMARK   37  A    between atoms: _79  and  _80
REMARK   38  A    between atoms: _79  and  _82
REMARK   39  A    between atoms: _82  and  _83
REMARK   40  A    between atoms: _88  and  _89
REMARK   41  A    between atoms: _91  and  _93
REMARK   42  A    between atoms: _93  and  _94
REMARK   43  A    between atoms: _93  and  _96
REMARK   44  A    between atoms: _96  and  _97
REMARK   45  A    between atoms: _102  and  _104
REMARK   46  A    between atoms: _104  and  _105
REMARK   47  A    between atoms: _104  and  _107
REMARK   48  A    between atoms: _111  and  _112
REMARK   49  A    between atoms: _117  and  _119
REMARK   50  A    between atoms: _119  and  _120
REMARK   51  A    between atoms: _119  and  _122
REMARK   52  A    between atoms: _122  and  _123
REMARK   53  A    between atoms: _129  and  _131
REMARK   54  A    between atoms: _131  and  _132
REMARK   55  A    between atoms: _134  and  _136
REMARK   56  A    between atoms: _136  and  _137
REMARK   57  A    between atoms: _136  and  _139
REMARK   58  A    between atoms: _139  and  _140
REMARK   59  A    between atoms: _140  and  _141
REMARK   60  A    between atoms: _144  and  _146
REMARK   61  A    between atoms: _146  and  _147
REMARK   62  A    between atoms: _150  and  _152
REMARK   63  A    between atoms: _152  and  _153
REMARK   64  A    between atoms: _152  and  _155
REMARK   65  A    between atoms: _155  and  _156
REMARK   66  A    between atoms: _161  and  _163
REMARK   67  A    between atoms: _163  and  _164
REMARK   68  A    between atoms: _167  and  _169
REMARK   69  A    between atoms: _169  and  _170
REMARK   70  A    between atoms: _169  and  _172
REMARK   71  A    between atoms: _172  and  _173
REMARK   72  A    between atoms: _173  and  _174
REMARK   73  A    between atoms: _174  and  _175
REMARK   74  A    between atoms: _175  and  _176
REMARK   75  A    between atoms: _180  and  _182
REMARK   76  A    between atoms: _182  and  _183
REMARK   77  A    between atoms: _182  and  _185
REMARK   78  A    between atoms: _185  and  _186
REMARK   79  A    between atoms: _186  and  _187
REMARK   80  A    between atoms: _187  and  _188
REMARK   81  A    between atoms: _197  and  _199
REMARK   82  A    between atoms: _199  and  _200
REMARK   83  A    between atoms: _199  and  _202
REMARK   84  A    between atoms: _202  and  _203
REMARK   85  A    between atoms: _203  and  _204
REMARK   86  A    between atoms: _207  and  _209
REMARK   87  A    between atoms: _209  and  _210
REMARK   88  A    between atoms: _209  and  _212
REMARK   89  A    between atoms: _215  and  _217
REMARK   90  A    between atoms: _217  and  _218
REMARK   91  A    between atoms: _221  and  _223
REMARK   92  A    between atoms: _223  and  _224
REMARK   93  A    between atoms: _223  and  _226
REMARK   94  A    between atoms: _226  and  _227
REMARK   95  A    between atoms: _237  and  _239
REMARK   96  A    between atoms: _239  and  _240
REMARK   97  A    between atoms: _239  and  _242
REMARK   98  A    between atoms: _245  and  _247
REMARK   99  A    between atoms: _247  and  _248
REMARK  100  A    between atoms: _247  and  _250
REMARK  101  A    between atoms: _250  and  _251
REMARK  102  A    between atoms: _254  and  _256
REMARK  103  A    between atoms: _256  and  _257
REMARK  104  A    between atoms: _256  and  _259
REMARK  105  A    between atoms: _259  and  _260
REMARK  106  A    between atoms: _266  and  _268
REMARK  107  A    between atoms: _268  and  _269
REMARK  108  A    between atoms: _268  and  _271
REMARK  109  A    between atoms: _271  and  _272
REMARK  110  A    between atoms: _272  and  _273
REMARK  111  A    between atoms: _278  and  _280
REMARK  112  A    between atoms: _280  and  _281
REMARK  113  A    between atoms: _280  and  _283
REMARK  114  A    between atoms: _286  and  _288
REMARK  115  A    between atoms: _288  and  _289
REMARK  116  A    between atoms: _288  and  _291
REMARK  117  A    between atoms: _291  and  _292
REMARK  118  A    between atoms: _295  and  _297
REMARK  119  A    between atoms: _297  and  _298
REMARK  120  A    between atoms: _297  and  _300
REMARK  121  A    between atoms: _300  and  _301
REMARK  122  A    between atoms: _304  and  _306
REMARK  123  A    between atoms: _306  and  _307
REMARK  124  A    between atoms: _306  and  _309
REMARK  125  A    between atoms: _309  and  _310
REMARK  126  A    between atoms: _313  and  _315
REMARK  127  A    between atoms: _315  and  _316
REMARK  128  A    between atoms: _315  and  _318
REMARK  129  A    between atoms: _318  and  _319
REMARK  130  A    between atoms: _322  and  _324
REMARK  131  A    between atoms: _324  and  _325
REMARK  132  A    between atoms: _324  and  _327
REMARK  133  A    between atoms: _327  and  _328
REMARK  134  A    between atoms: _328  and  _329
REMARK  135  A    between atoms: _329  and  _330
REMARK  136  A    between atoms: _339  and  _341
REMARK  137  A    between atoms: _341  and  _342
REMARK  138  A    between atoms: _341  and  _344
REMARK  139  A    between atoms: _344  and  _345
REMARK  140  A    between atoms: _348  and  _350
REMARK  141  A    between atoms: _350  and  _351
REMARK  142  A    between atoms: _350  and  _353
REMARK  143  A    between atoms: _353  and  _354
REMARK  144  A    between atoms: _358  and  _359
REMARK  145  A    between atoms: _364  and  _366
REMARK  146  A    between atoms: _366  and  _367
REMARK  147  A    between atoms: _366  and  _369
REMARK  148  A    between atoms: _369  and  _370
REMARK  149  A    between atoms: _375  and  _376
REMARK  150  A    between atoms: _378  and  _380
REMARK  151  A    between atoms: _380  and  _381
REMARK  152  A    between atoms: _380  and  _383
REMARK  153  A    between atoms: _383  and  _384
REMARK  154  A    between atoms: _394  and  _396
REMARK  155  A    between atoms: _396  and  _397
REMARK  156  A    between atoms: _396  and  _399
REMARK  157  A    between atoms: _399  and  _400
REMARK  158  A    between atoms: _406  and  _408
REMARK  159  A    between atoms: _408  and  _409
REMARK  160  A    between atoms: _408  and  _411
REMARK  161  A    between atoms: _411  and  _412
REMARK  162  A    between atoms: _415  and  _417
REMARK  163  A    between atoms: _417  and  _418
REMARK  164  A    between atoms: _417  and  _420
REMARK  165  A    between atoms: _420  and  _421
REMARK  166  A    between atoms: _431  and  _433
REMARK  167  A    between atoms: _433  and  _434
REMARK  168  A    between atoms: _433  and  _436
REMARK  169  A    between atoms: _436  and  _437
REMARK  170  A    between atoms: _437  and  _438
REMARK  171  A    between atoms: _440  and  _442
REMARK  172  A    between atoms: _442  and  _443
REMARK  173  A    between atoms: _442  and  _445
REMARK  174  A    between atoms: _445  and  _446
REMARK  175  A    between atoms: _451  and  _453
REMARK  176  A    between atoms: _453  and  _454
REMARK  177  A    between atoms: _457  and  _458
REMARK  178  A    between atoms: _463  and  _465
REMARK  179  A    between atoms: _465  and  _466
REMARK  180  A    between atoms: _465  and  _468
REMARK  181  A    between atoms: _468  and  _469
REMARK  182  A    between atoms: _479  and  _481
REMARK  183  A    between atoms: _481  and  _482
REMARK  184  A    between atoms: _486  and  _487
REMARK  185  A    between atoms: _492  and  _494
REMARK  186  A    between atoms: _494  and  _495
REMARK  187  A    between atoms: _494  and  _497
REMARK  188  A    between atoms: _497  and  _498
REMARK  189  A    between atoms: _498  and  _499
REMARK  190  A    between atoms: _504  and  _506
REMARK  191  A    between atoms: _506  and  _507
REMARK  192  A    between atoms: _509  and  _511
REMARK  193  A    between atoms: _511  and  _512
REMARK  194  A    between atoms: _514  and  _516
REMARK  195  A    between atoms: _516  and  _517
REMARK  196  A    between atoms: _516  and  _519
REMARK  197  A    between atoms: _519  and  _520
REMARK  198  A    between atoms: _530  and  _532
REMARK  199  A    between atoms: _532  and  _533
REMARK  200  A    between atoms: _532  and  _535
REMARK  201  A    between atoms: _535  and  _536
REMARK  202  A    between atoms: _539  and  _541
REMARK  203  A    between atoms: _541  and  _542
REMARK  204  A    between atoms: _541  and  _544
REMARK  205  A    between atoms: _544  and  _545
REMARK  206  A    between atoms: _548  and  _550
REMARK  207  A    between atoms: _550  and  _551
REMARK  208  A    between atoms: _550  and  _553
REMARK  209  A    between atoms: _553  and  _554
REMARK  210  A    between atoms: _554  and  _555
REMARK  211  A    between atoms: _555  and  _556
REMARK  212  A    between atoms: _565  and  _567
REMARK  213  A    between atoms: _567  and  _568
REMARK  214  A    between atoms: _567  and  _570
REMARK  215  A    between atoms: _570  and  _571
REMARK  216  A    between atoms: _581  and  _583
REMARK  217  A    between atoms: _583  and  _584
REMARK  218  A    between atoms: _586  and  _588
REMARK  219  A    between atoms: _588  and  _589
REMARK  220  A    between atoms: _588  and  _591
REMARK  221  A    between atoms: _591  and  _592
REMARK  222  A    between atoms: _597  and  _599
REMARK  223  A    between atoms: _599  and  _600
REMARK  224  A    between atoms: _603  and  _605
REMARK  225  A    between atoms: _605  and  _606
REMARK  226  A    between atoms: _605  and  _608
REMARK  227  A    between atoms: _608  and  _609
REMARK  228  A    between atoms: _612  and  _614
REMARK  229  A    between atoms: _614  and  _615
REMARK  230  A    between atoms: _614  and  _617
REMARK  231  A    between atoms: _617  and  _618
REMARK  232  A    between atoms: _624  and  _626
REMARK  233  A    between atoms: _626  and  _627
REMARK  234  A    between atoms: _626  and  _629
REMARK  235  A    between atoms: _629  and  _630
REMARK  236  A    between atoms: _630  and  _631
REMARK  237  A    between atoms: _635  and  _636
REMARK  238  A    between atoms: _641  and  _643
REMARK  239  A    between atoms: _643  and  _644
REMARK  240  A    between atoms: _643  and  _646
REMARK  241  A    between atoms: _646  and  _647
REMARK  242  A    between atoms: _647  and  _648
REMARK  243  A    between atoms: _648  and  _649
REMARK                            x       y       z     vdW  Elec       q    Type
REMARK                         _______ _______ _______ _____ _____    ______ ____
ROOT
ATOM      1  C   ASP A   1       3.734 -18.701  20.725  0.00  0.00    +0.239 C 
ATOM      2  O   ASP A   1       4.015 -19.914  20.761  0.00  0.00    -0.274 OA
ATOM      3  N   PHE A   2       4.162 -17.884  19.762  0.00  0.00    -0.298 N 
ATOM      4  H   PHE A   2       4.014 -16.861  19.876  0.00  0.00    +0.150 HD
ENDROOT
BRANCH   1   5
ATOM      5  CA  ASP A   1       2.909 -18.038  21.846  0.00  0.00    +0.156 C 
BRANCH   5   6
ATOM      6  N   ASP A   1       3.834 -17.188  22.628  0.00  0.00    -0.238 NA
ATOM      7  H   ASP A   1       3.533 -16.217  22.849  0.00  0.00    +0.142 HD
ENDBRANCH   5   6
BRANCH   5   8
ATOM      8  CB  ASP A   1       1.814 -17.130  21.242  0.00  0.00    +0.140 C 
BRANCH   8   9
ATOM      9  CG  ASP A   1       0.513 -17.868  20.875  0.00  0.00    +0.367 C 
ATOM     10  OD2 ASP A   1       0.457 -19.112  20.960  0.00  0.00    -0.246 OA
ATOM     11  OD1 ASP A   1      -0.469 -17.159  20.502  0.00  0.00    -0.246 OA
ENDBRANCH   8   9
ENDBRANCH   5   8
ENDBRANCH   1   5
BRANCH   3  12
ATOM     12  CA  PHE A   2       4.830 -18.363  18.554  0.00  0.00    +0.141 C 
BRANCH  12  13
ATOM     13  C   PHE A   2       6.152 -19.072  18.852  0.00  0.00    +0.227 C 
ATOM     14  O   PHE A   2       6.455 -20.096  18.237  0.00  0.00    -0.286 OA
ENDBRANCH  12  13
BRANCH  12  15
ATOM     15  CB  PHE A   2       5.101 -17.216  17.558  0.00  0.00    +0.054 C 
BRANCH  15  16
ATOM     16  CG  PHE A   2       3.861 -16.525  17.022  0.00  0.00    -0.020 A 
ATOM     17  CD2 PHE A   2       2.633 -17.183  16.925  0.00  0.00    -0.004 A 
ATOM     18  CE2 PHE A   2       1.501 -16.521  16.416  0.00  0.00    -0.000 A 
ATOM     19  CZ  PHE A   2       1.604 -15.194  15.971  0.00  0.00    -0.000 A 
ATOM     20  CE1 PHE A   2       2.827 -14.543  16.048  0.00  0.00    -0.000 A 
ATOM     21  CD1 PHE A   2       3.949 -15.211  16.555  0.00  0.00    -0.004 A 
ENDBRANCH  15  16
ENDBRANCH  12  15
ENDBRANCH   3  12
TORSDOF 8
REMARK  Name = ../refined-set-2016/3k02/3k02_pocket.pdb
REMARK  243 active torsions:
REMARK  status: ('A' for Active; 'I' for Inactive)
REMARK    1  A    between atoms: _1  and  _3
REMARK    2  A    between atoms: _3  and  _4
REMARK    3  A    between atoms: _3  and  _6
REMARK    4  A    between atoms: _6  and  _7
REMARK    5  A    between atoms: _10  and  _12
REMARK    6  A    between atoms: _12  and  _13
REMARK    7  A    between atoms: _12  and  _15
REMARK    8  A    between atoms: _15  and  _16
REMARK    9  A    between atoms: _19  and  _21
REMARK   10  A    between atoms: _21  and  _22
REMARK   11  A    between atoms: _21  and  _24
REMARK   12  A    between atoms: _24  and  _25
REMARK   13  A    between atoms: _27  and  _29
REMARK   14  A    between atoms: _29  and  _30
REMARK   15  A    between atoms: _29  and  _32
REMARK   16  A    between atoms: _32  and  _33
REMARK   17  A    between atoms: _38  and  _40
REMARK   18  A    between atoms: _40  and  _41
REMARK   19  A    between atoms: _40  and  _43
REMARK   20  A    between atoms: _43  and  _44
REMARK   21  A    between atoms: _44  and  _45
REMARK   22  A    between atoms: _48  and  _50
REMARK   23  A    between atoms: _50  and  _51
REMARK   24  A    between atoms: _54  and  _56
REMARK   25  A    between atoms: _56  and  _57
REMARK   26  A    between atoms: _56  and  _59
REMARK   27  A    between atoms: _59  and  _60
REMARK   28  A    between atoms: _60  and  _61
REMARK   29  A    between atoms: _64  and  _66
REMARK   30  A    between atoms: _66  and  _67
REMARK   31  A    between atoms: _66  and  _69
REMARK   32  A    between atoms: _69  and  _70
REMARK   33  A    between atoms: _70  and  _71
REMARK   34  A    between atoms: _71  and  _72
REMARK   35  A    between atoms: _72  and  _73
REMARK   36  A    between atoms: _77  and  _79
REMARK   37  A    between atoms: _79  and  _80
REMARK   38  A    between atoms: _79  and  _82
REMARK   39  A    between atoms: _82  and  _83
REMARK   40  A    between atoms: _88  and  _89
REMARK   41  A    between atoms: _91  and  _93
REMARK   42  A    between atoms: _93  and  _94
REMARK   43  A    between atoms: _93  and  _96
REMARK   44  A    between atoms: _96  and  _97
REMARK   45  A    between atoms: _102  and  _104
REMARK   46  A    between atoms: _104  and  _105
REMARK   47  A    between atoms: _104  and  _107
REMARK   48  A    between atoms: _111  and  _112
REMARK   49  A    between atoms: _117  and  _119
REMARK   50  A    between atoms: _119  and  _120
REMARK   51  A    between atoms: _119  and  _122
REMARK   52  A    between atoms: _122  and  _123
REMARK   53  A    between atoms: _129  and  _131
REMARK   54  A    between atoms: _131  and  _132
REMARK   55  A    between atoms: _134  and  _136
REMARK   56  A    between atoms: _136  and  _137
REMARK   57  A    between atoms: _136  and  _139
REMARK   58  A    between atoms: _139  and  _140
REMARK   59  A    between atoms: _140  and  _141
REMARK   60  A    between atoms: _144  and  _146
REMARK   61  A    between atoms: _146  and  _147
REMARK   62  A    between atoms: _150  and  _152
REMARK   63  A    between atoms: _152  and  _153
REMARK   64  A    between atoms: _152  and  _155
REMARK   65  A    between atoms: _155  and  _156
REMARK   66  A    between atoms: _161  and  _163
REMARK   67  A    between atoms: _163  and  _164
REMARK   68  A    between atoms: _167  and  _169
REMARK   69  A    between atoms: _169  and  _170
REMARK   70  A    between atoms: _169  and  _172
REMARK   71  A    between atoms: _172  and  _173
REMARK   72  A    between atoms: _173  and  _174
REMARK   73  A    between atoms: _174  and  _175
REMARK   74  A    between atoms: _175  and  _176
REMARK   75  A    between atoms: _180  and  _182
REMARK   76  A    between atoms: _182  and  _183
REMARK   77  A    between atoms: _182  and  _185
REMARK   78  A    between atoms: _185  and  _186
REMARK   79  A    between atoms: _186  and  _187
REMARK   80  A    between atoms: _187  and  _188
REMARK   81  A    between atoms: _197  and  _199
REMARK   82  A    between atoms: _199  and  _200
REMARK   83  A    between atoms: _199  and  _202
REMARK   84  A    between atoms: _202  and  _203
REMARK   85  A    between atoms: _203  and  _204
REMARK   86  A    between atoms: _207  and  _209
REMARK   87  A    between atoms: _209  and  _210
REMARK   88  A    between atoms: _209  and  _212
REMARK   89  A    between atoms: _215  and  _217
REMARK   90  A    between atoms: _217  and  _218
REMARK   91  A    between atoms: _221  and  _223
REMARK   92  A    between atoms: _223  and  _224
REMARK   93  A    between atoms: _223  and  _226
REMARK   94  A    between atoms: _226  and  _227
REMARK   95  A    between atoms: _237  and  _239
REMARK   96  A    between atoms: _239  and  _240
REMARK   97  A    between atoms: _239  and  _242
REMARK   98  A    between atoms: _245  and  _247
REMARK   99  A    between atoms: _247  and  _248
REMARK  100  A    between atoms: _247  and  _250
REMARK  101  A    between atoms: _250  and  _251
REMARK  102  A    between atoms: _254  and  _256
REMARK  103  A    between atoms: _256  and  _257
REMARK  104  A    between atoms: _256  and  _259
REMARK  105  A    between atoms: _259  and  _260
REMARK  106  A    between atoms: _266  and  _268
REMARK  107  A    between atoms: _268  and  _269
REMARK  108  A    between atoms: _268  and  _271
REMARK  109  A    between atoms: _271  and  _272
REMARK  110  A    between atoms: _272  and  _273
REMARK  111  A    between atoms: _278  and  _280
REMARK  112  A    between atoms: _280  and  _281
REMARK  113  A    between atoms: _280  and  _283
REMARK  114  A    between atoms: _286  and  _288
REMARK  115  A    between atoms: _288  and  _289
REMARK  116  A    between atoms: _288  and  _291
REMARK  117  A    between atoms: _291  and  _292
REMARK  118  A    between atoms: _295  and  _297
REMARK  119  A    between atoms: _297  and  _298
REMARK  120  A    between atoms: _297  and  _300
REMARK  121  A    between atoms: _300  and  _301
REMARK  122  A    between atoms: _304  and  _306
REMARK  123  A    between atoms: _306  and  _307
REMARK  124  A    between atoms: _306  and  _309
REMARK  125  A    between atoms: _309  and  _310
REMARK  126  A    between atoms: _313  and  _315
REMARK  127  A    between atoms: _315  and  _316
REMARK  128  A    between atoms: _315  and  _318
REMARK  129  A    between atoms: _318  and  _319
REMARK  130  A    between atoms: _322  and  _324
REMARK  131  A    between atoms: _324  and  _325
REMARK  132  A    between atoms: _324  and  _327
REMARK  133  A    between atoms: _327  and  _328
REMARK  134  A    between atoms: _328  and  _329
REMARK  135  A    between atoms: _329  and  _330
REMARK  136  A    between atoms: _339  and  _341
REMARK  137  A    between atoms: _341  and  _342
REMARK  138  A    between atoms: _341  and  _344
REMARK  139  A    between atoms: _344  and  _345
REMARK  140  A    between atoms: _348  and  _350
REMARK  141  A    between atoms: _350  and  _351
REMARK  142  A    between atoms: _350  and  _353
REMARK  143  A    between atoms: _353  and  _354
REMARK  144  A    between atoms: _358  and  _359
REMARK  145  A    between atoms: _364  and  _366
REMARK  146  A    between atoms: _366  and  _367
REMARK  147  A    between atoms: _366  and  _369
REMARK  148  A    between atoms: _369  and  _370
REMARK  149  A    between atoms: _375  and  _376
REMARK  150  A    between atoms: _378  and  _380
REMARK  151  A    between atoms: _380  and  _381
REMARK  152  A    between atoms: _380  and  _383
REMARK  153  A    between atoms: _383  and  _384
REMARK  154  A    between atoms: _394  and  _396
REMARK  155  A    between atoms: _396  and  _397
REMARK  156  A    between atoms: _396  and  _399
REMARK  157  A    between atoms: _399  and  _400
REMARK  158  A    between atoms: _406  and  _408
REMARK  159  A    between atoms: _408  and  _409
REMARK  160  A    between atoms: _408  and  _411
REMARK  161  A    between atoms: _411  and  _412
REMARK  162  A    between atoms: _415  and  _417
REMARK  163  A    between atoms: _417  and  _418
REMARK  164  A    between atoms: _417  and  _420
REMARK  165  A    between atoms: _420  and  _421
REMARK  166  A    between atoms: _431  and  _433
REMARK  167  A    between atoms: _433  and  _434
REMARK  168  A    between atoms: _433  and  _436
REMARK  169  A    between atoms: _436  and  _437
REMARK  170  A    between atoms: _437  and  _438
REMARK  171  A    between atoms: _440  and  _442
REMARK  172  A    between atoms: _442  and  _443
REMARK  173  A    between atoms: _442  and  _445
REMARK  174  A    between atoms: _445  and  _446
REMARK  175  A    between atoms: _451  and  _453
REMARK  176  A    between atoms: _453  and  _454
REMARK  177  A    between atoms: _457  and  _458
REMARK  178  A    between atoms: _463  and  _465
REMARK  179  A    between atoms: _465  and  _466
REMARK  180  A    between atoms: _465  and  _468
REMARK  181  A    between atoms: _468  and  _469
REMARK  182  A    between atoms: _479  and  _481
REMARK  183  A    between atoms: _481  and  _482
REMARK  184  A    between atoms: _486  and  _487
REMARK  185  A    between atoms: _492  and  _494
REMARK  186  A    between atoms: _494  and  _495
REMARK  187  A    between atoms: _494  and  _497
REMARK  188  A    between atoms: _497  and  _498
REMARK  189  A    between atoms: _498  and  _499
REMARK  190  A    between atoms: _504  and  _506
REMARK  191  A    between atoms: _506  and  _507
REMARK  192  A    between atoms: _509  and  _511
REMARK  193  A    between atoms: _511  and  _512
REMARK  194  A    between atoms: _514  and  _516
REMARK  195  A    between atoms: _516  and  _517
REMARK  196  A    between atoms: _516  and  _519
REMARK  197  A    between atoms: _519  and  _520
REMARK  198  A    between atoms: _530  and  _532
REMARK  199  A    between atoms: _532  and  _533
REMARK  200  A    between atoms: _532  and  _535
REMARK  201  A    between atoms: _535  and  _536
REMARK  202  A    between atoms: _539  and  _541
REMARK  203  A    between atoms: _541  and  _542
REMARK  204  A    between atoms: _541  and  _544
REMARK  205  A    between atoms: _544  and  _545
REMARK  206  A    between atoms: _548  and  _550
REMARK  207  A    between atoms: _550  and  _551
REMARK  208  A    between atoms: _550  and  _553
REMARK  209  A    between atoms: _553  and  _554
REMARK  210  A    between atoms: _554  and  _555
REMARK  211  A    between atoms: _555  and  _556
REMARK  212  A    between atoms: _565  and  _567
REMARK  213  A    between atoms: _567  and  _568
REMARK  214  A    between atoms: _567  and  _570
REMARK  215  A    between atoms: _570  and  _571
REMARK  216  A    between atoms: _581  and  _583
REMARK  217  A    between atoms: _583  and  _584
REMARK  218  A    between atoms: _586  and  _588
REMARK  219  A    between atoms: _588  and  _589
REMARK  220  A    between atoms: _588  and  _591
REMARK  221  A    between atoms: _591  and  _592
REMARK  222  A    between atoms: _597  and  _599
REMARK  223  A    between atoms: _599  and  _600
REMARK  224  A    between atoms: _603  and  _605
REMARK  225  A    between atoms: _605  and  _606
REMARK  226  A    between atoms: _605  and  _608
REMARK  227  A    between atoms: _608  and  _609
REMARK  228  A    between atoms: _612  and  _614
REMARK  229  A    between atoms: _614  and  _615
REMARK  230  A    between atoms: _614  and  _617
REMARK  231  A    between atoms: _617  and  _618
REMARK  232  A    between atoms: _624  and  _626
REMARK  233  A    between atoms: _626  and  _627
REMARK  234  A    between atoms: _626  and  _629
REMARK  235  A    between atoms: _629  and  _630
REMARK  236  A    between atoms: _630  and  _631
REMARK  237  A    between atoms: _635  and  _636
REMARK  238  A    between atoms: _641  and  _643
REMARK  239  A    between atoms: _643  and  _644
REMARK  240  A    between atoms: _643  and  _646
REMARK  241  A    between atoms: _646  and  _647
REMARK  242  A    between atoms: _647  and  _648
REMARK  243  A    between atoms: _648  and  _649
REMARK                            x       y       z     vdW  Elec       q    Type
REMARK                         _______ _______ _______ _____ _____    ______ ____
ROOT
ATOM      1  C   ILE A   3       3.157   1.035  23.696  0.00  0.00    +0.241 C 
ATOM      2  N   ASP A   4       2.167   0.490  24.394  0.00  0.00    -0.297 N 
ATOM      3  H   ASP A   4       2.267  -0.464  24.797  0.00  0.00    +0.150 HD
ATOM      4  O   ILE A   3       3.062   2.149  23.185  0.00  0.00    -0.273 OA
ENDROOT
BRANCH   2   5
ATOM      5  CA  ASP A   4       0.937   1.250  24.587  0.00  0.00    +0.160 C 
BRANCH   5   6
ATOM      6  C   ASP A   4       0.215   0.864  25.862  0.00  0.00    +0.241 C 
ATOM      7  O   ASP A   4       0.642  -0.039  26.587  0.00  0.00    -0.273 OA
ATOM      8  N   THR A   5      -0.852   1.603  26.132  0.00  0.00    -0.295 N 
ATOM      9  H   THR A   5      -1.059   2.420  25.523  0.00  0.00    +0.150 HD
BRANCH   8  10
ATOM     10  CA  THR A   5      -1.756   1.315  27.257  0.00  0.00    +0.176 C 
BRANCH  10  11
ATOM     11  C   THR A   5      -3.123   1.907  26.910  0.00  0.00    +0.243 C 
ATOM     12  N   LEU A   6      -4.111   1.688  27.772  0.00  0.00    -0.298 N 
ATOM     13  H   LEU A   6      -3.941   1.061  28.584  0.00  0.00    +0.150 HD
ATOM     14  O   THR A   5      -3.280   2.511  25.854  0.00  0.00    -0.273 OA
BRANCH  12  15
ATOM     15  CA  LEU A   6      -5.437   2.305  27.612  0.00  0.00    +0.137 C 
BRANCH  15  16
ATOM     16  C   LEU A   6      -5.519   3.604  28.393  0.00  0.00    +0.227 C 
ATOM     17  O   LEU A   6      -4.852   3.760  29.408  0.00  0.00    -0.286 OA
ENDBRANCH  15  16
BRANCH  15  18
ATOM     18  CB  LEU A   6      -6.568   1.362  28.079  0.00  0.00    +0.028 C 
BRANCH  18  19
ATOM     19  CG  LEU A   6      -6.702   0.084  27.238  0.00  0.00    +0.002 C 
ATOM     20  CD2 LEU A   6      -7.712  -0.932  27.863  0.00  0.00    +0.000 C 
ATOM     21  CD1 LEU A   6      -7.100   0.476  25.778  0.00  0.00    +0.000 C 
ENDBRANCH  18  19
ENDBRANCH  15  18
ENDBRANCH  12  15
ENDBRANCH  10  11
BRANCH  10  22
ATOM     22  CB  THR A   5      -1.207   1.880  28.581  0.00  0.00    +0.137 C 
ATOM     23  CG2 THR A   5      -1.227   3.414  28.611  0.00  0.00    +0.034 C 
BRANCH  22  24
ATOM     24  OG1 THR A   5      -2.011   1.412  29.670  0.00  0.00    -0.382 OA
ATOM     25  HG1 THR A   5      -1.985   0.423  29.697  0.00  0.00    +0.210 HD
ENDBRANCH  22  24
ENDBRANCH  10  22
ENDBRANCH   8  10
ENDBRANCH   5   6
BRANCH   5  26
ATOM     26  CB  ASP A   4       0.029   1.131  23.339  0.00  0.00    +0.143 C 
BRANCH  26  27
ATOM     27  CG  ASP A   4      -0.273  -0.322  22.968  0.00  0.00    +0.367 C 
ATOM     28  OD2 ASP A   4      -0.508  -1.110  23.909  0.00  0.00    -0.246 OA
ATOM     29  OD1 ASP A   4      -0.279  -0.640  21.755  0.00  0.00    -0.246 OA
ENDBRANCH  26  27
ENDBRANCH   5  26
ENDBRANCH   2   5
BRANCH   1  30
ATOM     30  CA  ILE A   3       4.411   0.199  23.510  0.00  0.00    +0.149 C 
BRANCH  30  32
ATOM     31  C   VAL A   2       5.185  -0.343  21.276  0.00  0.00    +0.241 C 
ATOM     32  N   ILE A   3       4.992   0.564  22.214  0.00  0.00    -0.297 N 
ATOM     33  H   ILE A   3       5.256   1.553  22.032  0.00  0.00    +0.150 HD
ATOM     34  O   VAL A   2       5.023  -1.493  21.450  0.00  0.00    -0.273 OA
BRANCH  31  35
ATOM     35  CA  VAL A   2       5.670   0.192  19.915  0.00  0.00    +0.148 C 
BRANCH  35  37
ATOM     36  C   GLN A   1       7.604  -0.539  18.641  0.00  0.00    +0.238 C 
ATOM     37  N   VAL A   2       6.432  -0.817  19.179  0.00  0.00    -0.297 N 
ATOM     38  H   VAL A   2       6.041  -1.775  19.078  0.00  0.00    +0.150 HD
ATOM     39  O   GLN A   1       8.094   0.532  18.665  0.00  0.00    -0.274 OA
BRANCH  36  40
ATOM     40  CA  GLN A   1       8.359  -1.705  18.011  0.00  0.00    +0.145 C 
BRANCH  40  41
ATOM     41  N   GLN A   1       8.760  -2.659  19.011  0.00  0.00    -0.238 NA
ATOM     42  H   GLN A   1       8.023  -3.131  19.573  0.00  0.00    +0.142 HD
ENDBRANCH  40  41
BRANCH  40  43
ATOM     43  CB  GLN A   1       7.501  -2.353  16.921  0.00  0.00    +0.036 C 
BRANCH  43  44
ATOM     44  CG  GLN A   1       7.133  -1.440  15.803  0.00  0.00    +0.087 C 
BRANCH  44  45
ATOM     45  CD  GLN A   1       6.005  -1.951  14.981  0.00  0.00    +0.219 C 
ATOM     46  OE1 GLN A   1       5.007  -2.313  15.499  0.00  0.00    -0.275 OA
ATOM     47  NE2 GLN A   1       6.182  -1.963  13.676  0.00  0.00    -0.329 N 
ATOM     48 HE21 GLN A   1       7.081  -1.633  13.270  0.00  0.00    +0.145 HD
ATOM     49 HE22 GLN A   1       5.423  -2.302  13.051  0.00  0.00    +0.145 HD
ENDBRANCH  44  45
ENDBRANCH  43  44
ENDBRANCH  40  43
ENDBRANCH  36  40
ENDBRANCH  35  37
BRANCH  35  50
ATOM     50  CB  VAL A   2       4.470   0.754  19.151  0.00  0.00    +0.027 C 
ATOM     51  CG2 VAL A   2       3.491  -0.321  18.774  0.00  0.00    +0.002 C 
ATOM     52  CG1 VAL A   2       4.911   1.560  17.940  0.00  0.00    +0.002 C 
ENDBRANCH  35  50
ENDBRANCH  31  35
ENDBRANCH  30  32
BRANCH  30  53
ATOM     53  CB  ILE A   3       5.423   0.435  24.648  0.00  0.00    +0.027 C 
ATOM     54  CG2 ILE A   3       5.883   1.899  24.707  0.00  0.00    +0.002 C 
BRANCH  53  55
ATOM     55  CG1 ILE A   3       4.875  -0.043  25.998  0.00  0.00    +0.002 C 
ATOM     56  CD1 ILE A   3       5.970  -0.180  27.063  0.00  0.00    +0.000 C 
ENDBRANCH  53  55
ENDBRANCH  30  53
ENDBRANCH   1  30
TORSDOF 24
REMARK  Name = ../refined-set-2016/3k02/3k02_pocket.pdb
REMARK  243 active torsions:
REMARK  status: ('A' for Active; 'I' for Inactive)
REMARK    1  A    between atoms: _1  and  _3
REMARK    2  A    between atoms: _3  and  _4
REMARK    3  A    between atoms: _3  and  _6
REMARK    4  A    between atoms: _6  and  _7
REMARK    5  A    between atoms: _10  and  _12
REMARK    6  A    between atoms: _12  and  _13
REMARK    7  A    between atoms: _12  and  _15
REMARK    8  A    between atoms: _15  and  _16
REMARK    9  A    between atoms: _19  and  _21
REMARK   10  A    between atoms: _21  and  _22
REMARK   11  A    between atoms: _21  and  _24
REMARK   12  A    between atoms: _24  and  _25
REMARK   13  A    between atoms: _27  and  _29
REMARK   14  A    between atoms: _29  and  _30
REMARK   15  A    between atoms: _29  and  _32
REMARK   16  A    between atoms: _32  and  _33
REMARK   17  A    between atoms: _38  and  _40
REMARK   18  A    between atoms: _40  and  _41
REMARK   19  A    between atoms: _40  and  _43
REMARK   20  A    between atoms: _43  and  _44
REMARK   21  A    between atoms: _44  and  _45
REMARK   22  A    between atoms: _48  and  _50
REMARK   23  A    between atoms: _50  and  _51
REMARK   24  A    between atoms: _54  and  _56
REMARK   25  A    between atoms: _56  and  _57
REMARK   26  A    between atoms: _56  and  _59
REMARK   27  A    between atoms: _59  and  _60
REMARK   28  A    between atoms: _60  and  _61
REMARK   29  A    between atoms: _64  and  _66
REMARK   30  A    between atoms: _66  and  _67
REMARK   31  A    between atoms: _66  and  _69
REMARK   32  A    between atoms: _69  and  _70
REMARK   33  A    between atoms: _70  and  _71
REMARK   34  A    between atoms: _71  and  _72
REMARK   35  A    between atoms: _72  and  _73
REMARK   36  A    between atoms: _77  and  _79
REMARK   37  A    between atoms: _79  and  _80
REMARK   38  A    between atoms: _79  and  _82
REMARK   39  A    between atoms: _82  and  _83
REMARK   40  A    between atoms: _88  and  _89
REMARK   41  A    between atoms: _91  and  _93
REMARK   42  A    between atoms: _93  and  _94
REMARK   43  A    between atoms: _93  and  _96
REMARK   44  A    between atoms: _96  and  _97
REMARK   45  A    between atoms: _102  and  _104
REMARK   46  A    between atoms: _104  and  _105
REMARK   47  A    between atoms: _104  and  _107
REMARK   48  A    between atoms: _111  and  _112
REMARK   49  A    between atoms: _117  and  _119
REMARK   50  A    between atoms: _119  and  _120
REMARK   51  A    between atoms: _119  and  _122
REMARK   52  A    between atoms: _122  and  _123
REMARK   53  A    between atoms: _129  and  _131
REMARK   54  A    between atoms: _131  and  _132
REMARK   55  A    between atoms: _134  and  _136
REMARK   56  A    between atoms: _136  and  _137
REMARK   57  A    between atoms: _136  and  _139
REMARK   58  A    between atoms: _139  and  _140
REMARK   59  A    between atoms: _140  and  _141
REMARK   60  A    between atoms: _144  and  _146
REMARK   61  A    between atoms: _146  and  _147
REMARK   62  A    between atoms: _150  and  _152
REMARK   63  A    between atoms: _152  and  _153
REMARK   64  A    between atoms: _152  and  _155
REMARK   65  A    between atoms: _155  and  _156
REMARK   66  A    between atoms: _161  and  _163
REMARK   67  A    between atoms: _163  and  _164
REMARK   68  A    between atoms: _167  and  _169
REMARK   69  A    between atoms: _169  and  _170
REMARK   70  A    between atoms: _169  and  _172
REMARK   71  A    between atoms: _172  and  _173
REMARK   72  A    between atoms: _173  and  _174
REMARK   73  A    between atoms: _174  and  _175
REMARK   74  A    between atoms: _175  and  _176
REMARK   75  A    between atoms: _180  and  _182
REMARK   76  A    between atoms: _182  and  _183
REMARK   77  A    between atoms: _182  and  _185
REMARK   78  A    between atoms: _185  and  _186
REMARK   79  A    between atoms: _186  and  _187
REMARK   80  A    between atoms: _187  and  _188
REMARK   81  A    between atoms: _197  and  _199
REMARK   82  A    between atoms: _199  and  _200
REMARK   83  A    between atoms: _199  and  _202
REMARK   84  A    between atoms: _202  and  _203
REMARK   85  A    between atoms: _203  and  _204
REMARK   86  A    between atoms: _207  and  _209
REMARK   87  A    between atoms: _209  and  _210
REMARK   88  A    between atoms: _209  and  _212
REMARK   89  A    between atoms: _215  and  _217
REMARK   90  A    between atoms: _217  and  _218
REMARK   91  A    between atoms: _221  and  _223
REMARK   92  A    between atoms: _223  and  _224
REMARK   93  A    between atoms: _223  and  _226
REMARK   94  A    between atoms: _226  and  _227
REMARK   95  A    between atoms: _237  and  _239
REMARK   96  A    between atoms: _239  and  _240
REMARK   97  A    between atoms: _239  and  _242
REMARK   98  A    between atoms: _245  and  _247
REMARK   99  A    between atoms: _247  and  _248
REMARK  100  A    between atoms: _247  and  _250
REMARK  101  A    between atoms: _250  and  _251
REMARK  102  A    between atoms: _254  and  _256
REMARK  103  A    between atoms: _256  and  _257
REMARK  104  A    between atoms: _256  and  _259
REMARK  105  A    between atoms: _259  and  _260
REMARK  106  A    between atoms: _266  and  _268
REMARK  107  A    between atoms: _268  and  _269
REMARK  108  A    between atoms: _268  and  _271
REMARK  109  A    between atoms: _271  and  _272
REMARK  110  A    between atoms: _272  and  _273
REMARK  111  A    between atoms: _278  and  _280
REMARK  112  A    between atoms: _280  and  _281
REMARK  113  A    between atoms: _280  and  _283
REMARK  114  A    between atoms: _286  and  _288
REMARK  115  A    between atoms: _288  and  _289
REMARK  116  A    between atoms: _288  and  _291
REMARK  117  A    between atoms: _291  and  _292
REMARK  118  A    between atoms: _295  and  _297
REMARK  119  A    between atoms: _297  and  _298
REMARK  120  A    between atoms: _297  and  _300
REMARK  121  A    between atoms: _300  and  _301
REMARK  122  A    between atoms: _304  and  _306
REMARK  123  A    between atoms: _306  and  _307
REMARK  124  A    between atoms: _306  and  _309
REMARK  125  A    between atoms: _309  and  _310
REMARK  126  A    between atoms: _313  and  _315
REMARK  127  A    between atoms: _315  and  _316
REMARK  128  A    between atoms: _315  and  _318
REMARK  129  A    between atoms: _318  and  _319
REMARK  130  A    between atoms: _322  and  _324
REMARK  131  A    between atoms: _324  and  _325
REMARK  132  A    between atoms: _324  and  _327
REMARK  133  A    between atoms: _327  and  _328
REMARK  134  A    between atoms: _328  and  _329
REMARK  135  A    between atoms: _329  and  _330
REMARK  136  A    between atoms: _339  and  _341
REMARK  137  A    between atoms: _341  and  _342
REMARK  138  A    between atoms: _341  and  _344
REMARK  139  A    between atoms: _344  and  _345
REMARK  140  A    between atoms: _348  and  _350
REMARK  141  A    between atoms: _350  and  _351
REMARK  142  A    between atoms: _350  and  _353
REMARK  143  A    between atoms: _353  and  _354
REMARK  144  A    between atoms: _358  and  _359
REMARK  145  A    between atoms: _364  and  _366
REMARK  146  A    between atoms: _366  and  _367
REMARK  147  A    between atoms: _366  and  _369
REMARK  148  A    between atoms: _369  and  _370
REMARK  149  A    between atoms: _375  and  _376
REMARK  150  A    between atoms: _378  and  _380
REMARK  151  A    between atoms: _380  and  _381
REMARK  152  A    between atoms: _380  and  _383
REMARK  153  A    between atoms: _383  and  _384
REMARK  154  A    between atoms: _394  and  _396
REMARK  155  A    between atoms: _396  and  _397
REMARK  156  A    between atoms: _396  and  _399
REMARK  157  A    between atoms: _399  and  _400
REMARK  158  A    between atoms: _406  and  _408
REMARK  159  A    between atoms: _408  and  _409
REMARK  160  A    between atoms: _408  and  _411
REMARK  161  A    between atoms: _411  and  _412
REMARK  162  A    between atoms: _415  and  _417
REMARK  163  A    between atoms: _417  and  _418
REMARK  164  A    between atoms: _417  and  _420
REMARK  165  A    between atoms: _420  and  _421
REMARK  166  A    between atoms: _431  and  _433
REMARK  167  A    between atoms: _433  and  _434
REMARK  168  A    between atoms: _433  and  _436
REMARK  169  A    between atoms: _436  and  _437
REMARK  170  A    between atoms: _437  and  _438
REMARK  171  A    between atoms: _440  and  _442
REMARK  172  A    between atoms: _442  and  _443
REMARK  173  A    between atoms: _442  and  _445
REMARK  174  A    between atoms: _445  and  _446
REMARK  175  A    between atoms: _451  and  _453
REMARK  176  A    between atoms: _453  and  _454
REMARK  177  A    between atoms: _457  and  _458
REMARK  178  A    between atoms: _463  and  _465
REMARK  179  A    between atoms: _465  and  _466
REMARK  180  A    between atoms: _465  and  _468
REMARK  181  A    between atoms: _468  and  _469
REMARK  182  A    between atoms: _479  and  _481
REMARK  183  A    between atoms: _481  and  _482
REMARK  184  A    between atoms: _486  and  _487
REMARK  185  A    between atoms: _492  and  _494
REMARK  186  A    between atoms: _494  and  _495
REMARK  187  A    between atoms: _494  and  _497
REMARK  188  A    between atoms: _497  and  _498
REMARK  189  A    between atoms: _498  and  _499
REMARK  190  A    between atoms: _504  and  _506
REMARK  191  A    between atoms: _506  and  _507
REMARK  192  A    between atoms: _509  and  _511
REMARK  193  A    between atoms: _511  and  _512
REMARK  194  A    between atoms: _514  and  _516
REMARK  195  A    between atoms: _516  and  _517
REMARK  196  A    between atoms: _516  and  _519
REMARK  197  A    between atoms: _519  and  _520
REMARK  198  A    between atoms: _530  and  _532
REMARK  199  A    between atoms: _532  and  _533
REMARK  200  A    between atoms: _532  and  _535
REMARK  201  A    between atoms: _535  and  _536
REMARK  202  A    between atoms: _539  and  _541
REMARK  203  A    between atoms: _541  and  _542
REMARK  204  A    between atoms: _541  and  _544
REMARK  205  A    between atoms: _544  and  _545
REMARK  206  A    between atoms: _548  and  _550
REMARK  207  A    between atoms: _550  and  _551
REMARK  208  A    between atoms: _550  and  _553
REMARK  209  A    between atoms: _553  and  _554
REMARK  210  A    between atoms: _554  and  _555
REMARK  211  A    between atoms: _555  and  _556
REMARK  212  A    between atoms: _565  and  _567
REMARK  213  A    between atoms: _567  and  _568
REMARK  214  A    between atoms: _567  and  _570
REMARK  215  A    between atoms: _570  and  _571
REMARK  216  A    between atoms: _581  and  _583
REMARK  217  A    between atoms: _583  and  _584
REMARK  218  A    between atoms: _586  and  _588
REMARK  219  A    between atoms: _588  and  _589
REMARK  220  A    between atoms: _588  and  _591
REMARK  221  A    between atoms: _591  and  _592
REMARK  222  A    between atoms: _597  and  _599
REMARK  223  A    between atoms: _599  and  _600
REMARK  224  A    between atoms: _603  and  _605
REMARK  225  A    between atoms: _605  and  _606
REMARK  226  A    between atoms: _605  and  _608
REMARK  227  A    between atoms: _608  and  _609
REMARK  228  A    between atoms: _612  and  _614
REMARK  229  A    between atoms: _614  and  _615
REMARK  230  A    between atoms: _614  and  _617
REMARK  231  A    between atoms: _617  and  _618
REMARK  232  A    between atoms: _624  and  _626
REMARK  233  A    between atoms: _626  and  _627
REMARK  234  A    between atoms: _626  and  _629
REMARK  235  A    between atoms: _629  and  _630
REMARK  236  A    between atoms: _630  and  _631
REMARK  237  A    between atoms: _635  and  _636
REMARK  238  A    between atoms: _641  and  _643
REMARK  239  A    between atoms: _643  and  _644
REMARK  240  A    between atoms: _643  and  _646
REMARK  241  A    between atoms: _646  and  _647
REMARK  242  A    between atoms: _647  and  _648
REMARK  243  A    between atoms: _648  and  _649
REMARK                            x       y       z     vdW  Elec       q    Type
REMARK                         _______ _______ _______ _____ _____    ______ ____
ROOT
ATOM      1  NE  ARG A   1     -13.731  -3.233  21.136  0.00  0.00    -0.265 N 
ATOM      2  HE  ARG A   1     -14.529  -3.878  20.965  0.00  0.00    +0.259 HD
ATOM      3  CZ  ARG A   1     -12.650  -3.313  20.378  0.00  0.00    +0.342 C 
ATOM      4  NH2 ARG A   1     -11.642  -2.469  20.610  0.00  0.00    -0.292 N 
ATOM      5 HH21 ARG A   1     -11.717  -1.767  21.374  0.00  0.00    +0.255 HD
ATOM      6 HH22 ARG A   1     -10.782  -2.513  20.027  0.00  0.00    +0.255 HD
ATOM      7  NH1 ARG A   1     -12.570  -4.196  19.404  0.00  0.00    -0.292 N 
ATOM      8 HH11 ARG A   1     -13.364  -4.843  19.222  0.00  0.00    +0.255 HD
ATOM      9 HH12 ARG A   1     -11.713  -4.246  18.817  0.00  0.00    +0.255 HD
ENDROOT
BRANCH   1  10
ATOM     10  CD  ARG A   1     -13.815  -2.249  22.210  0.00  0.00    +0.174 C 
BRANCH  10  11
ATOM     11  CG  ARG A   1     -15.100  -2.252  22.873  0.00  0.00    +0.045 C 
BRANCH  11  12
ATOM     12  CB  ARG A   1     -15.045  -1.397  24.149  0.00  0.00    +0.029 C 
BRANCH  12  13
ATOM     13  CA  ARG A   1     -16.417  -1.370  24.793  0.00  0.00    +0.133 C 
BRANCH  13  14
ATOM     14  N   ARG A   1     -16.539  -0.332  25.816  0.00  0.00    -0.239 NA
ATOM     15  H   ARG A   1     -15.702   0.158  26.191  0.00  0.00    +0.142 HD
ENDBRANCH  13  14
BRANCH  13  16
ATOM     16  C   ARG A   1     -16.753  -2.723  25.449  0.00  0.00    +0.224 C 
ATOM     17  O   ARG A   1     -16.147  -3.074  26.445  0.00  0.00    -0.287 OA
ENDBRANCH  13  16
ENDBRANCH  12  13
ENDBRANCH  11  12
ENDBRANCH  10  11
ENDBRANCH   1  10
TORSDOF 6
REMARK  Name = ../refined-set-2016/3k02/3k02_pocket.pdb
REMARK  243 active torsions:
REMARK  status: ('A' for Active; 'I' for Inactive)
REMARK    1  A    between atoms: _1  and  _3
REMARK    2  A    between atoms: _3  and  _4
REMARK    3  A    between atoms: _3  and  _6
REMARK    4  A    between atoms: _6  and  _7
REMARK    5  A    between atoms: _10  and  _12
REMARK    6  A    between atoms: _12  and  _13
REMARK    7  A    between atoms: _12  and  _15
REMARK    8  A    between atoms: _15  and  _16
REMARK    9  A    between atoms: _19  and  _21
REMARK   10  A    between atoms: _21  and  _22
REMARK   11  A    between atoms: _21  and  _24
REMARK   12  A    between atoms: _24  and  _25
REMARK   13  A    between atoms: _27  and  _29
REMARK   14  A    between atoms: _29  and  _30
REMARK   15  A    between atoms: _29  and  _32
REMARK   16  A    between atoms: _32  and  _33
REMARK   17  A    between atoms: _38  and  _40
REMARK   18  A    between atoms: _40  and  _41
REMARK   19  A    between atoms: _40  and  _43
REMARK   20  A    between atoms: _43  and  _44
REMARK   21  A    between atoms: _44  and  _45
REMARK   22  A    between atoms: _48  and  _50
REMARK   23  A    between atoms: _50  and  _51
REMARK   24  A    between atoms: _54  and  _56
REMARK   25  A    between atoms: _56  and  _57
REMARK   26  A    between atoms: _56  and  _59
REMARK   27  A    between atoms: _59  and  _60
REMARK   28  A    between atoms: _60  and  _61
REMARK   29  A    between atoms: _64  and  _66
REMARK   30  A    between atoms: _66  and  _67
REMARK   31  A    between atoms: _66  and  _69
REMARK   32  A    between atoms: _69  and  _70
REMARK   33  A    between atoms: _70  and  _71
REMARK   34  A    between atoms: _71  and  _72
REMARK   35  A    between atoms: _72  and  _73
REMARK   36  A    between atoms: _77  and  _79
REMARK   37  A    between atoms: _79  and  _80
REMARK   38  A    between atoms: _79  and  _82
REMARK   39  A    between atoms: _82  and  _83
REMARK   40  A    between atoms: _88  and  _89
REMARK   41  A    between atoms: _91  and  _93
REMARK   42  A    between atoms: _93  and  _94
REMARK   43  A    between atoms: _93  and  _96
REMARK   44  A    between atoms: _96  and  _97
REMARK   45  A    between atoms: _102  and  _104
REMARK   46  A    between atoms: _104  and  _105
REMARK   47  A    between atoms: _104  and  _107
REMARK   48  A    between atoms: _111  and  _112
REMARK   49  A    between atoms: _117  and  _119
REMARK   50  A    between atoms: _119  and  _120
REMARK   51  A    between atoms: _119  and  _122
REMARK   52  A    between atoms: _122  and  _123
REMARK   53  A    between atoms: _129  and  _131
REMARK   54  A    between atoms: _131  and  _132
REMARK   55  A    between atoms: _134  and  _136
REMARK   56  A    between atoms: _136  and  _137
REMARK   57  A    between atoms: _136  and  _139
REMARK   58  A    between atoms: _139  and  _140
REMARK   59  A    between atoms: _140  and  _141
REMARK   60  A    between atoms: _144  and  _146
REMARK   61  A    between atoms: _146  and  _147
REMARK   62  A    between atoms: _150  and  _152
REMARK   63  A    between atoms: _152  and  _153
REMARK   64  A    between atoms: _152  and  _155
REMARK   65  A    between atoms: _155  and  _156
REMARK   66  A    between atoms: _161  and  _163
REMARK   67  A    between atoms: _163  and  _164
REMARK   68  A    between atoms: _167  and  _169
REMARK   69  A    between atoms: _169  and  _170
REMARK   70  A    between atoms: _169  and  _172
REMARK   71  A    between atoms: _172  and  _173
REMARK   72  A    between atoms: _173  and  _174
REMARK   73  A    between atoms: _174  and  _175
REMARK   74  A    between atoms: _175  and  _176
REMARK   75  A    between atoms: _180  and  _182
REMARK   76  A    between atoms: _182  and  _183
REMARK   77  A    between atoms: _182  and  _185
REMARK   78  A    between atoms: _185  and  _186
REMARK   79  A    between atoms: _186  and  _187
REMARK   80  A    between atoms: _187  and  _188
REMARK   81  A    between atoms: _197  and  _199
REMARK   82  A    between atoms: _199  and  _200
REMARK   83  A    between atoms: _199  and  _202
REMARK   84  A    between atoms: _202  and  _203
REMARK   85  A    between atoms: _203  and  _204
REMARK   86  A    between atoms: _207  and  _209
REMARK   87  A    between atoms: _209  and  _210
REMARK   88  A    between atoms: _209  and  _212
REMARK   89  A    between atoms: _215  and  _217
REMARK   90  A    between atoms: _217  and  _218
REMARK   91  A    between atoms: _221  and  _223
REMARK   92  A    between atoms: _223  and  _224
REMARK   93  A    between atoms: _223  and  _226
REMARK   94  A    between atoms: _226  and  _227
REMARK   95  A    between atoms: _237  and  _239
REMARK   96  A    between atoms: _239  and  _240
REMARK   97  A    between atoms: _239  and  _242
REMARK   98  A    between atoms: _245  and  _247
REMARK   99  A    between atoms: _247  and  _248
REMARK  100  A    between atoms: _247  and  _250
REMARK  101  A    between atoms: _250  and  _251
REMARK  102  A    between atoms: _254  and  _256
REMARK  103  A    between atoms: _256  and  _257
REMARK  104  A    between atoms: _256  and  _259
REMARK  105  A    between atoms: _259  and  _260
REMARK  106  A    between atoms: _266  and  _268
REMARK  107  A    between atoms: _268  and  _269
REMARK  108  A    between atoms: _268  and  _271
REMARK  109  A    between atoms: _271  and  _272
REMARK  110  A    between atoms: _272  and  _273
REMARK  111  A    between atoms: _278  and  _280
REMARK  112  A    between atoms: _280  and  _281
REMARK  113  A    between atoms: _280  and  _283
REMARK  114  A    between atoms: _286  and  _288
REMARK  115  A    between atoms: _288  and  _289
REMARK  116  A    between atoms: _288  and  _291
REMARK  117  A    between atoms: _291  and  _292
REMARK  118  A    between atoms: _295  and  _297
REMARK  119  A    between atoms: _297  and  _298
REMARK  120  A    between atoms: _297  and  _300
REMARK  121  A    between atoms: _300  and  _301
REMARK  122  A    between atoms: _304  and  _306
REMARK  123  A    between atoms: _306  and  _307
REMARK  124  A    between atoms: _306  and  _309
REMARK  125  A    between atoms: _309  and  _310
REMARK  126  A    between atoms: _313  and  _315
REMARK  127  A    between atoms: _315  and  _316
REMARK  128  A    between atoms: _315  and  _318
REMARK  129  A    between atoms: _318  and  _319
REMARK  130  A    between atoms: _322  and  _324
REMARK  131  A    between atoms: _324  and  _325
REMARK  132  A    between atoms: _324  and  _327
REMARK  133  A    between atoms: _327  and  _328
REMARK  134  A    between atoms: _328  and  _329
REMARK  135  A    between atoms: _329  and  _330
REMARK  136  A    between atoms: _339  and  _341
REMARK  137  A    between atoms: _341  and  _342
REMARK  138  A    between atoms: _341  and  _344
REMARK  139  A    between atoms: _344  and  _345
REMARK  140  A    between atoms: _348  and  _350
REMARK  141  A    between atoms: _350  and  _351
REMARK  142  A    between atoms: _350  and  _353
REMARK  143  A    between atoms: _353  and  _354
REMARK  144  A    between atoms: _358  and  _359
REMARK  145  A    between atoms: _364  and  _366
REMARK  146  A    between atoms: _366  and  _367
REMARK  147  A    between atoms: _366  and  _369
REMARK  148  A    between atoms: _369  and  _370
REMARK  149  A    between atoms: _375  and  _376
REMARK  150  A    between atoms: _378  and  _380
REMARK  151  A    between atoms: _380  and  _381
REMARK  152  A    between atoms: _380  and  _383
REMARK  153  A    between atoms: _383  and  _384
REMARK  154  A    between atoms: _394  and  _396
REMARK  155  A    between atoms: _396  and  _397
REMARK  156  A    between atoms: _396  and  _399
REMARK  157  A    between atoms: _399  and  _400
REMARK  158  A    between atoms: _406  and  _408
REMARK  159  A    between atoms: _408  and  _409
REMARK  160  A    between atoms: _408  and  _411
REMARK  161  A    between atoms: _411  and  _412
REMARK  162  A    between atoms: _415  and  _417
REMARK  163  A    between atoms: _417  and  _418
REMARK  164  A    between atoms: _417  and  _420
REMARK  165  A    between atoms: _420  and  _421
REMARK  166  A    between atoms: _431  and  _433
REMARK  167  A    between atoms: _433  and  _434
REMARK  168  A    between atoms: _433  and  _436
REMARK  169  A    between atoms: _436  and  _437
REMARK  170  A    between atoms: _437  and  _438
REMARK  171  A    between atoms: _440  and  _442
REMARK  172  A    between atoms: _442  and  _443
REMARK  173  A    between atoms: _442  and  _445
REMARK  174  A    between atoms: _445  and  _446
REMARK  175  A    between atoms: _451  and  _453
REMARK  176  A    between atoms: _453  and  _454
REMARK  177  A    between atoms: _457  and  _458
REMARK  178  A    between atoms: _463  and  _465
REMARK  179  A    between atoms: _465  and  _466
REMARK  180  A    between atoms: _465  and  _468
REMARK  181  A    between atoms: _468  and  _469
REMARK  182  A    between atoms: _479  and  _481
REMARK  183  A    between atoms: _481  and  _482
REMARK  184  A    between atoms: _486  and  _487
REMARK  185  A    between atoms: _492  and  _494
REMARK  186  A    between atoms: _494  and  _495
REMARK  187  A    between atoms: _494  and  _497
REMARK  188  A    between atoms: _497  and  _498
REMARK  189  A    between atoms: _498  and  _499
REMARK  190  A    between atoms: _504  and  _506
REMARK  191  A    between atoms: _506  and  _507
REMARK  192  A    between atoms: _509  and  _511
REMARK  193  A    between atoms: _511  and  _512
REMARK  194  A    between atoms: _514  and  _516
REMARK  195  A    between atoms: _516  and  _517
REMARK  196  A    between atoms: _516  and  _519
REMARK  197  A    between atoms: _519  and  _520
REMARK  198  A    between atoms: _530  and  _532
REMARK  199  A    between atoms: _532  and  _533
REMARK  200  A    between atoms: _532  and  _535
REMARK  201  A    between atoms: _535  and  _536
REMARK  202  A    between atoms: _539  and  _541
REMARK  203  A    between atoms: _541  and  _542
REMARK  204  A    between atoms: _541  and  _544
REMARK  205  A    between atoms: _544  and  _545
REMARK  206  A    between atoms: _548  and  _550
REMARK  207  A    between atoms: _550  and  _551
REMARK  208  A    between atoms: _550  and  _553
REMARK  209  A    between atoms: _553  and  _554
REMARK  210  A    between atoms: _554  and  _555
REMARK  211  A    between atoms: _555  and  _556
REMARK  212  A    between atoms: _565  and  _567
REMARK  213  A    between atoms: _567  and  _568
REMARK  214  A    between atoms: _567  and  _570
REMARK  215  A    between atoms: _570  and  _571
REMARK  216  A    between atoms: _581  and  _583
REMARK  217  A    between atoms: _583  and  _584
REMARK  218  A    between atoms: _586  and  _588
REMARK  219  A    between atoms: _588  and  _589
REMARK  220  A    between atoms: _588  and  _591
REMARK  221  A    between atoms: _591  and  _592
REMARK  222  A    between atoms: _597  and  _599
REMARK  223  A    between atoms: _599  and  _600
REMARK  224  A    between atoms: _603  and  _605
REMARK  225  A    between atoms: _605  and  _606
REMARK  226  A    between atoms: _605  and  _608
REMARK  227  A    between atoms: _608  and  _609
REMARK  228  A    between atoms: _612  and  _614
REMARK  229  A    between atoms: _614  and  _615
REMARK  230  A    between atoms: _614  and  _617
REMARK  231  A    between atoms: _617  and  _618
REMARK  232  A    between atoms: _624  and  _626
REMARK  233  A    between atoms: _626  and  _627
REMARK  234  A    between atoms: _626  and  _629
REMARK  235  A    between atoms: _629  and  _630
REMARK  236  A    between atoms: _630  and  _631
REMARK  237  A    between atoms: _635  and  _636
REMARK  238  A    between atoms: _641  and  _643
REMARK  239  A    between atoms: _643  and  _644
REMARK  240  A    between atoms: _643  and  _646
REMARK  241  A    between atoms: _646  and  _647
REMARK  242  A    between atoms: _647  and  _648
REMARK  243  A    between atoms: _648  and  _649
REMARK                            x       y       z     vdW  Elec       q    Type
REMARK                         _______ _______ _______ _____ _____    ______ ____
ROOT
ATOM      1  C   TYR A   4      -9.339  -5.023  27.983  0.00  0.00    +0.241 C 
ATOM      2  O   TYR A   4      -8.723  -4.527  28.940  0.00  0.00    -0.273 OA
ATOM      3  N   TRP A   5     -10.536  -4.597  27.580  0.00  0.00    -0.297 N 
ATOM      4  H   TRP A   5     -11.017  -5.094  26.803  0.00  0.00    +0.150 HD
ENDROOT
BRANCH   3   5
ATOM      5  CA  TRP A   5     -11.192  -3.441  28.209  0.00  0.00    +0.153 C 
BRANCH   5   6
ATOM      6  C   TRP A   5     -11.706  -3.739  29.629  0.00  0.00    +0.241 C 
ATOM      7  O   TRP A   5     -12.093  -2.812  30.357  0.00  0.00    -0.273 OA
ATOM      8  N   PHE A   6     -11.721  -5.001  30.030  0.00  0.00    -0.297 N 
ATOM      9  H   PHE A   6     -11.491  -5.753  29.349  0.00  0.00    +0.150 HD
BRANCH   8  10
ATOM     10  CA  PHE A   6     -12.053  -5.361  31.408  0.00  0.00    +0.153 C 
BRANCH  10  11
ATOM     11  C   PHE A   6     -10.942  -4.947  32.375  0.00  0.00    +0.241 C 
ATOM     12  O   PHE A   6     -11.217  -4.683  33.559  0.00  0.00    -0.273 OA
ATOM     13  N   LEU A   7      -9.693  -4.928  31.902  0.00  0.00    -0.298 N 
ATOM     14  H   LEU A   7      -9.524  -4.994  30.878  0.00  0.00    +0.150 HD
BRANCH  13  15
ATOM     15  CA  LEU A   7      -8.565  -4.815  32.820  0.00  0.00    +0.137 C 
BRANCH  15  16
ATOM     16  C   LEU A   7      -8.529  -3.519  33.651  0.00  0.00    +0.227 C 
ATOM     17  O   LEU A   7      -8.289  -3.590  34.860  0.00  0.00    -0.286 OA
ENDBRANCH  15  16
BRANCH  15  18
ATOM     18  CB  LEU A   7      -7.223  -5.093  32.126  0.00  0.00    +0.028 C 
BRANCH  18  19
ATOM     19  CG  LEU A   7      -7.067  -6.492  31.535  0.00  0.00    +0.002 C 
ATOM     20  CD2 LEU A   7      -7.291  -7.538  32.616  0.00  0.00    +0.000 C 
ATOM     21  CD1 LEU A   7      -5.678  -6.697  30.906  0.00  0.00    +0.000 C 
ENDBRANCH  18  19
ENDBRANCH  15  18
ENDBRANCH  13  15
ENDBRANCH  10  11
BRANCH  10  22
ATOM     22  CB  PHE A   6     -12.257  -6.890  31.489  0.00  0.00    +0.055 C 
BRANCH  22  23
ATOM     23  CG  PHE A   6     -12.629  -7.398  32.867  0.00  0.00    -0.020 A 
ATOM     24  CD2 PHE A   6     -11.779  -8.278  33.539  0.00  0.00    -0.004 A 
ATOM     25  CE2 PHE A   6     -12.134  -8.777  34.803  0.00  0.00    -0.000 A 
ATOM     26  CZ  PHE A   6     -13.331  -8.384  35.375  0.00  0.00    -0.000 A 
ATOM     27  CE1 PHE A   6     -14.185  -7.520  34.719  0.00  0.00    -0.000 A 
ATOM     28  CD1 PHE A   6     -13.838  -7.039  33.456  0.00  0.00    -0.004 A 
ENDBRANCH  22  23
ENDBRANCH  10  22
ENDBRANCH   8  10
ENDBRANCH   5   6
BRANCH   5  29
ATOM     29  CB  TRP A   5     -12.320  -2.911  27.319  0.00  0.00    +0.057 C 
BRANCH  29  30
ATOM     30  CG  TRP A   5     -11.889  -1.836  26.343  0.00  0.00    -0.002 A 
ATOM     31  CD1 TRP A   5     -12.254  -0.529  26.388  0.00  0.00    +0.068 A 
ATOM     32  NE1 TRP A   5     -11.695   0.154  25.333  0.00  0.00    -0.352 N 
ATOM     33  HE1 TRP A   5     -11.821   1.168  25.141  0.00  0.00    +0.166 HD
ATOM     34  CE2 TRP A   5     -10.947  -0.705  24.574  0.00  0.00    +0.056 A 
ATOM     35  CZ2 TRP A   5     -10.222  -0.477  23.399  0.00  0.00    +0.017 A 
ATOM     36  CH2 TRP A   5      -9.565  -1.536  22.847  0.00  0.00    +0.001 A 
ATOM     37  CZ3 TRP A   5      -9.645  -2.824  23.401  0.00  0.00    +0.000 A 
ATOM     38  CE3 TRP A   5     -10.394  -3.063  24.561  0.00  0.00    +0.001 A 
ATOM     39  CD2 TRP A   5     -11.055  -1.982  25.162  0.00  0.00    +0.013 A 
ENDBRANCH  29  30
ENDBRANCH   5  29
ENDBRANCH   3   5
BRANCH   1  40
ATOM     40  CA  TYR A   4      -8.747  -6.195  27.185  0.00  0.00    +0.153 C 
BRANCH  40  43
ATOM     41  C   PRO A   3     -10.637  -7.645  27.548  0.00  0.00    +0.241 C 
ATOM     42  O   PRO A   3     -10.536  -7.506  28.778  0.00  0.00    -0.273 OA
ATOM     43  N   TYR A   4      -9.802  -7.054  26.694  0.00  0.00    -0.297 N 
ATOM     44  H   TYR A   4      -9.909  -7.211  25.672  0.00  0.00    +0.150 HD
BRANCH  41  48
ATOM     45  C   ASP A   2     -12.592  -7.093  25.143  0.00  0.00    +0.244 C 
ATOM     46  O   ASP A   2     -12.691  -6.127  25.901  0.00  0.00    -0.273 OA
ATOM     47  N   PRO A   3     -12.081  -8.257  25.551  0.00  0.00    -0.272 N 
ATOM     48  CA  PRO A   3     -11.739  -8.536  26.957  0.00  0.00    +0.152 C 
ATOM     49  CB  PRO A   3     -11.298 -10.037  26.923  0.00  0.00    +0.031 C 
ATOM     50  CG  PRO A   3     -10.812 -10.224  25.460  0.00  0.00    +0.024 C 
ATOM     51  CD  PRO A   3     -11.834  -9.419  24.676  0.00  0.00    +0.094 C 
BRANCH  45  52
ATOM     52  CA  ASP A   2     -13.050  -6.999  23.673  0.00  0.00    +0.160 C 
BRANCH  52  54
ATOM     53  C   ASP A   1     -15.330  -7.477  23.038  0.00  0.00    +0.239 C 
ATOM     54  N   ASP A   2     -14.474  -6.679  23.666  0.00  0.00    -0.297 N 
ATOM     55  H   ASP A   2     -14.818  -5.827  24.152  0.00  0.00    +0.150 HD
ATOM     56  O   ASP A   1     -14.968  -8.469  22.428  0.00  0.00    -0.274 OA
BRANCH  53  57
ATOM     57  CA  ASP A   1     -16.808  -7.124  23.089  0.00  0.00    +0.156 C 
BRANCH  57  58
ATOM     58  N   ASP A   1     -17.161  -5.923  23.818  0.00  0.00    -0.238 NA
ATOM     59  H   ASP A   1     -16.890  -4.997  23.430  0.00  0.00    +0.142 HD
ENDBRANCH  57  58
BRANCH  57  60
ATOM     60  CB  ASP A   1     -17.375  -7.066  21.673  0.00  0.00    +0.140 C 
BRANCH  60  61
ATOM     61  CG  ASP A   1     -16.627  -6.081  20.775  0.00  0.00    +0.367 C 
ATOM     62  OD2 ASP A   1     -15.910  -5.189  21.304  0.00  0.00    -0.246 OA
ATOM     63  OD1 ASP A   1     -16.741  -6.251  19.530  0.00  0.00    -0.246 OA
ENDBRANCH  60  61
ENDBRANCH  57  60
ENDBRANCH  53  57
ENDBRANCH  52  54
BRANCH  52  64
ATOM     64  CB  ASP A   2     -12.274  -5.904  22.916  0.00  0.00    +0.143 C 
BRANCH  64  65
ATOM     65  CG  ASP A   2     -10.790  -6.183  22.817  0.00  0.00    +0.367 C 
ATOM     66  OD2 ASP A   2     -10.195  -6.699  23.782  0.00  0.00    -0.246 OA
ATOM     67  OD1 ASP A   2     -10.212  -5.903  21.744  0.00  0.00    -0.246 OA
ENDBRANCH  64  65
ENDBRANCH  52  64
ENDBRANCH  45  52
ENDBRANCH  41  48
ENDBRANCH  40  43
BRANCH  40  68
ATOM     68  CB  TYR A   4      -7.982  -5.638  26.000  0.00  0.00    +0.055 C 
BRANCH  68  69
ATOM     69  CG  TYR A   4      -6.616  -5.048  26.313  0.00  0.00    -0.020 A 
ATOM     70  CD2 TYR A   4      -5.656  -5.801  27.029  0.00  0.00    -0.001 A 
ATOM     71  CE2 TYR A   4      -4.391  -5.292  27.262  0.00  0.00    +0.036 A 
ATOM     72  CZ  TYR A   4      -4.067  -4.040  26.766  0.00  0.00    +0.134 A 
ATOM     73  CE1 TYR A   4      -4.990  -3.281  26.054  0.00  0.00    +0.036 A 
ATOM     74  CD1 TYR A   4      -6.255  -3.800  25.818  0.00  0.00    -0.001 A 
BRANCH  72  75
ATOM     75  OH  TYR A   4      -2.800  -3.524  26.979  0.00  0.00    -0.506 OA
ATOM     76  HH  TYR A   4      -2.364  -3.353  26.107  0.00  0.00    +0.292 HD
ENDBRANCH  72  75
ENDBRANCH  68  69
ENDBRANCH  40  68
ENDBRANCH   1  40
TORSDOF 26
REMARK  Name = ../refined-set-2016/3k02/3k02_pocket.pdb
REMARK  243 active torsions:
REMARK  status: ('A' for Active; 'I' for Inactive)
REMARK    1  A    between atoms: _1  and  _3
REMARK    2  A    between atoms: _3  and  _4
REMARK    3  A    between atoms: _3  and  _6
REMARK    4  A    between atoms: _6  and  _7
REMARK    5  A    between atoms: _10  and  _12
REMARK    6  A    between atoms: _12  and  _13
REMARK    7  A    between atoms: _12  and  _15
REMARK    8  A    between atoms: _15  and  _16
REMARK    9  A    between atoms: _19  and  _21
REMARK   10  A    between atoms: _21  and  _22
REMARK   11  A    between atoms: _21  and  _24
REMARK   12  A    between atoms: _24  and  _25
REMARK   13  A    between atoms: _27  and  _29
REMARK   14  A    between atoms: _29  and  _30
REMARK   15  A    between atoms: _29  and  _32
REMARK   16  A    between atoms: _32  and  _33
REMARK   17  A    between atoms: _38  and  _40
REMARK   18  A    between atoms: _40  and  _41
REMARK   19  A    between atoms: _40  and  _43
REMARK   20  A    between atoms: _43  and  _44
REMARK   21  A    between atoms: _44  and  _45
REMARK   22  A    between atoms: _48  and  _50
REMARK   23  A    between atoms: _50  and  _51
REMARK   24  A    between atoms: _54  and  _56
REMARK   25  A    between atoms: _56  and  _57
REMARK   26  A    between atoms: _56  and  _59
REMARK   27  A    between atoms: _59  and  _60
REMARK   28  A    between atoms: _60  and  _61
REMARK   29  A    between atoms: _64  and  _66
REMARK   30  A    between atoms: _66  and  _67
REMARK   31  A    between atoms: _66  and  _69
REMARK   32  A    between atoms: _69  and  _70
REMARK   33  A    between atoms: _70  and  _71
REMARK   34  A    between atoms: _71  and  _72
REMARK   35  A    between atoms: _72  and  _73
REMARK   36  A    between atoms: _77  and  _79
REMARK   37  A    between atoms: _79  and  _80
REMARK   38  A    between atoms: _79  and  _82
REMARK   39  A    between atoms: _82  and  _83
REMARK   40  A    between atoms: _88  and  _89
REMARK   41  A    between atoms: _91  and  _93
REMARK   42  A    between atoms: _93  and  _94
REMARK   43  A    between atoms: _93  and  _96
REMARK   44  A    between atoms: _96  and  _97
REMARK   45  A    between atoms: _102  and  _104
REMARK   46  A    between atoms: _104  and  _105
REMARK   47  A    between atoms: _104  and  _107
REMARK   48  A    between atoms: _111  and  _112
REMARK   49  A    between atoms: _117  and  _119
REMARK   50  A    between atoms: _119  and  _120
REMARK   51  A    between atoms: _119  and  _122
REMARK   52  A    between atoms: _122  and  _123
REMARK   53  A    between atoms: _129  and  _131
REMARK   54  A    between atoms: _131  and  _132
REMARK   55  A    between atoms: _134  and  _136
REMARK   56  A    between atoms: _136  and  _137
REMARK   57  A    between atoms: _136  and  _139
REMARK   58  A    between atoms: _139  and  _140
REMARK   59  A    between atoms: _140  and  _141
REMARK   60  A    between atoms: _144  and  _146
REMARK   61  A    between atoms: _146  and  _147
REMARK   62  A    between atoms: _150  and  _152
REMARK   63  A    between atoms: _152  and  _153
REMARK   64  A    between atoms: _152  and  _155
REMARK   65  A    between atoms: _155  and  _156
REMARK   66  A    between atoms: _161  and  _163
REMARK   67  A    between atoms: _163  and  _164
REMARK   68  A    between atoms: _167  and  _169
REMARK   69  A    between atoms: _169  and  _170
REMARK   70  A    between atoms: _169  and  _172
REMARK   71  A    between atoms: _172  and  _173
REMARK   72  A    between atoms: _173  and  _174
REMARK   73  A    between atoms: _174  and  _175
REMARK   74  A    between atoms: _175  and  _176
REMARK   75  A    between atoms: _180  and  _182
REMARK   76  A    between atoms: _182  and  _183
REMARK   77  A    between atoms: _182  and  _185
REMARK   78  A    between atoms: _185  and  _186
REMARK   79  A    between atoms: _186  and  _187
REMARK   80  A    between atoms: _187  and  _188
REMARK   81  A    between atoms: _197  and  _199
REMARK   82  A    between atoms: _199  and  _200
REMARK   83  A    between atoms: _199  and  _202
REMARK   84  A    between atoms: _202  and  _203
REMARK   85  A    between atoms: _203  and  _204
REMARK   86  A    between atoms: _207  and  _209
REMARK   87  A    between atoms: _209  and  _210
REMARK   88  A    between atoms: _209  and  _212
REMARK   89  A    between atoms: _215  and  _217
REMARK   90  A    between atoms: _217  and  _218
REMARK   91  A    between atoms: _221  and  _223
REMARK   92  A    between atoms: _223  and  _224
REMARK   93  A    between atoms: _223  and  _226
REMARK   94  A    between atoms: _226  and  _227
REMARK   95  A    between atoms: _237  and  _239
REMARK   96  A    between atoms: _239  and  _240
REMARK   97  A    between atoms: _239  and  _242
REMARK   98  A    between atoms: _245  and  _247
REMARK   99  A    between atoms: _247  and  _248
REMARK  100  A    between atoms: _247  and  _250
REMARK  101  A    between atoms: _250  and  _251
REMARK  102  A    between atoms: _254  and  _256
REMARK  103  A    between atoms: _256  and  _257
REMARK  104  A    between atoms: _256  and  _259
REMARK  105  A    between atoms: _259  and  _260
REMARK  106  A    between atoms: _266  and  _268
REMARK  107  A    between atoms: _268  and  _269
REMARK  108  A    between atoms: _268  and  _271
REMARK  109  A    between atoms: _271  and  _272
REMARK  110  A    between atoms: _272  and  _273
REMARK  111  A    between atoms: _278  and  _280
REMARK  112  A    between atoms: _280  and  _281
REMARK  113  A    between atoms: _280  and  _283
REMARK  114  A    between atoms: _286  and  _288
REMARK  115  A    between atoms: _288  and  _289
REMARK  116  A    between atoms: _288  and  _291
REMARK  117  A    between atoms: _291  and  _292
REMARK  118  A    between atoms: _295  and  _297
REMARK  119  A    between atoms: _297  and  _298
REMARK  120  A    between atoms: _297  and  _300
REMARK  121  A    between atoms: _300  and  _301
REMARK  122  A    between atoms: _304  and  _306
REMARK  123  A    between atoms: _306  and  _307
REMARK  124  A    between atoms: _306  and  _309
REMARK  125  A    between atoms: _309  and  _310
REMARK  126  A    between atoms: _313  and  _315
REMARK  127  A    between atoms: _315  and  _316
REMARK  128  A    between atoms: _315  and  _318
REMARK  129  A    between atoms: _318  and  _319
REMARK  130  A    between atoms: _322  and  _324
REMARK  131  A    between atoms: _324  and  _325
REMARK  132  A    between atoms: _324  and  _327
REMARK  133  A    between atoms: _327  and  _328
REMARK  134  A    between atoms: _328  and  _329
REMARK  135  A    between atoms: _329  and  _330
REMARK  136  A    between atoms: _339  and  _341
REMARK  137  A    between atoms: _341  and  _342
REMARK  138  A    between atoms: _341  and  _344
REMARK  139  A    between atoms: _344  and  _345
REMARK  140  A    between atoms: _348  and  _350
REMARK  141  A    between atoms: _350  and  _351
REMARK  142  A    between atoms: _350  and  _353
REMARK  143  A    between atoms: _353  and  _354
REMARK  144  A    between atoms: _358  and  _359
REMARK  145  A    between atoms: _364  and  _366
REMARK  146  A    between atoms: _366  and  _367
REMARK  147  A    between atoms: _366  and  _369
REMARK  148  A    between atoms: _369  and  _370
REMARK  149  A    between atoms: _375  and  _376
REMARK  150  A    between atoms: _378  and  _380
REMARK  151  A    between atoms: _380  and  _381
REMARK  152  A    between atoms: _380  and  _383
REMARK  153  A    between atoms: _383  and  _384
REMARK  154  A    between atoms: _394  and  _396
REMARK  155  A    between atoms: _396  and  _397
REMARK  156  A    between atoms: _396  and  _399
REMARK  157  A    between atoms: _399  and  _400
REMARK  158  A    between atoms: _406  and  _408
REMARK  159  A    between atoms: _408  and  _409
REMARK  160  A    between atoms: _408  and  _411
REMARK  161  A    between atoms: _411  and  _412
REMARK  162  A    between atoms: _415  and  _417
REMARK  163  A    between atoms: _417  and  _418
REMARK  164  A    between atoms: _417  and  _420
REMARK  165  A    between atoms: _420  and  _421
REMARK  166  A    between atoms: _431  and  _433
REMARK  167  A    between atoms: _433  and  _434
REMARK  168  A    between atoms: _433  and  _436
REMARK  169  A    between atoms: _436  and  _437
REMARK  170  A    between atoms: _437  and  _438
REMARK  171  A    between atoms: _440  and  _442
REMARK  172  A    between atoms: _442  and  _443
REMARK  173  A    between atoms: _442  and  _445
REMARK  174  A    between atoms: _445  and  _446
REMARK  175  A    between atoms: _451  and  _453
REMARK  176  A    between atoms: _453  and  _454
REMARK  177  A    between atoms: _457  and  _458
REMARK  178  A    between atoms: _463  and  _465
REMARK  179  A    between atoms: _465  and  _466
REMARK  180  A    between atoms: _465  and  _468
REMARK  181  A    between atoms: _468  and  _469
REMARK  182  A    between atoms: _479  and  _481
REMARK  183  A    between atoms: _481  and  _482
REMARK  184  A    between atoms: _486  and  _487
REMARK  185  A    between atoms: _492  and  _494
REMARK  186  A    between atoms: _494  and  _495
REMARK  187  A    between atoms: _494  and  _497
REMARK  188  A    between atoms: _497  and  _498
REMARK  189  A    between atoms: _498  and  _499
REMARK  190  A    between atoms: _504  and  _506
REMARK  191  A    between atoms: _506  and  _507
REMARK  192  A    between atoms: _509  and  _511
REMARK  193  A    between atoms: _511  and  _512
REMARK  194  A    between atoms: _514  and  _516
REMARK  195  A    between atoms: _516  and  _517
REMARK  196  A    between atoms: _516  and  _519
REMARK  197  A    between atoms: _519  and  _520
REMARK  198  A    between atoms: _530  and  _532
REMARK  199  A    between atoms: _532  and  _533
REMARK  200  A    between atoms: _532  and  _535
REMARK  201  A    between atoms: _535  and  _536
REMARK  202  A    between atoms: _539  and  _541
REMARK  203  A    between atoms: _541  and  _542
REMARK  204  A    between atoms: _541  and  _544
REMARK  205  A    between atoms: _544  and  _545
REMARK  206  A    between atoms: _548  and  _550
REMARK  207  A    between atoms: _550  and  _551
REMARK  208  A    between atoms: _550  and  _553
REMARK  209  A    between atoms: _553  and  _554
REMARK  210  A    between atoms: _554  and  _555
REMARK  211  A    between atoms: _555  and  _556
REMARK  212  A    between atoms: _565  and  _567
REMARK  213  A    between atoms: _567  and  _568
REMARK  214  A    between atoms: _567  and  _570
REMARK  215  A    between atoms: _570  and  _571
REMARK  216  A    between atoms: _581  and  _583
REMARK  217  A    between atoms: _583  and  _584
REMARK  218  A    between atoms: _586  and  _588
REMARK  219  A    between atoms: _588  and  _589
REMARK  220  A    between atoms: _588  and  _591
REMARK  221  A    between atoms: _591  and  _592
REMARK  222  A    between atoms: _597  and  _599
REMARK  223  A    between atoms: _599  and  _600
REMARK  224  A    between atoms: _603  and  _605
REMARK  225  A    between atoms: _605  and  _606
REMARK  226  A    between atoms: _605  and  _608
REMARK  227  A    between atoms: _608  and  _609
REMARK  228  A    between atoms: _612  and  _614
REMARK  229  A    between atoms: _614  and  _615
REMARK  230  A    between atoms: _614  and  _617
REMARK  231  A    between atoms: _617  and  _618
REMARK  232  A    between atoms: _624  and  _626
REMARK  233  A    between atoms: _626  and  _627
REMARK  234  A    between atoms: _626  and  _629
REMARK  235  A    between atoms: _629  and  _630
REMARK  236  A    between atoms: _630  and  _631
REMARK  237  A    between atoms: _635  and  _636
REMARK  238  A    between atoms: _641  and  _643
REMARK  239  A    between atoms: _643  and  _644
REMARK  240  A    between atoms: _643  and  _646
REMARK  241  A    between atoms: _646  and  _647
REMARK  242  A    between atoms: _647  and  _648
REMARK  243  A    between atoms: _648  and  _649
REMARK                            x       y       z     vdW  Elec       q    Type
REMARK                         _______ _______ _______ _____ _____    ______ ____
ROOT
ATOM      1  CG  TRP A   1     -12.272  -0.658  15.929  0.00  0.00    -0.002 A 
ATOM      2  CD2 TRP A   1     -11.308   0.188  16.576  0.00  0.00    +0.013 A 
ATOM      3  CE3 TRP A   1     -10.817   0.269  17.892  0.00  0.00    +0.001 A 
ATOM      4  CZ3 TRP A   1      -9.842   1.241  18.182  0.00  0.00    +0.000 A 
ATOM      5  CH2 TRP A   1      -9.349   2.097  17.166  0.00  0.00    +0.001 A 
ATOM      6  CZ2 TRP A   1      -9.802   2.022  15.873  0.00  0.00    +0.017 A 
ATOM      7  CE2 TRP A   1     -10.786   1.067  15.585  0.00  0.00    +0.056 A 
ATOM      8  NE1 TRP A   1     -11.416   0.788  14.400  0.00  0.00    -0.352 N 
ATOM      9  HE1 TRP A   1     -11.253   1.275  13.496  0.00  0.00    +0.166 HD
ATOM     10  CD1 TRP A   1     -12.312  -0.259  14.611  0.00  0.00    +0.068 A 
ENDROOT
BRANCH   1  11
ATOM     11  CB  TRP A   1     -13.097  -1.735  16.579  0.00  0.00    +0.053 C 
BRANCH  11  12
ATOM     12  CA  TRP A   1     -14.250  -1.140  17.410  0.00  0.00    +0.137 C 
BRANCH  12  13
ATOM     13  N   TRP A   1     -15.223  -2.183  17.820  0.00  0.00    -0.239 NA
ATOM     14  H   TRP A   1     -15.134  -3.152  17.453  0.00  0.00    +0.142 HD
ENDBRANCH  12  13
BRANCH  12  15
ATOM     15  C   TRP A   1     -14.975  -0.067  16.603  0.00  0.00    +0.224 C 
ATOM     16  O   TRP A   1     -14.934   1.115  16.951  0.00  0.00    -0.287 OA
ENDBRANCH  12  15
ENDBRANCH  11  12
ENDBRANCH   1  11
TORSDOF 4
REMARK  Name = ../refined-set-2016/3k02/3k02_pocket.pdb
REMARK  243 active torsions:
REMARK  status: ('A' for Active; 'I' for Inactive)
REMARK    1  A    between atoms: _1  and  _3
REMARK    2  A    between atoms: _3  and  _4
REMARK    3  A    between atoms: _3  and  _6
REMARK    4  A    between atoms: _6  and  _7
REMARK    5  A    between atoms: _10  and  _12
REMARK    6  A    between atoms: _12  and  _13
REMARK    7  A    between atoms: _12  and  _15
REMARK    8  A    between atoms: _15  and  _16
REMARK    9  A    between atoms: _19  and  _21
REMARK   10  A    between atoms: _21  and  _22
REMARK   11  A    between atoms: _21  and  _24
REMARK   12  A    between atoms: _24  and  _25
REMARK   13  A    between atoms: _27  and  _29
REMARK   14  A    between atoms: _29  and  _30
REMARK   15  A    between atoms: _29  and  _32
REMARK   16  A    between atoms: _32  and  _33
REMARK   17  A    between atoms: _38  and  _40
REMARK   18  A    between atoms: _40  and  _41
REMARK   19  A    between atoms: _40  and  _43
REMARK   20  A    between atoms: _43  and  _44
REMARK   21  A    between atoms: _44  and  _45
REMARK   22  A    between atoms: _48  and  _50
REMARK   23  A    between atoms: _50  and  _51
REMARK   24  A    between atoms: _54  and  _56
REMARK   25  A    between atoms: _56  and  _57
REMARK   26  A    between atoms: _56  and  _59
REMARK   27  A    between atoms: _59  and  _60
REMARK   28  A    between atoms: _60  and  _61
REMARK   29  A    between atoms: _64  and  _66
REMARK   30  A    between atoms: _66  and  _67
REMARK   31  A    between atoms: _66  and  _69
REMARK   32  A    between atoms: _69  and  _70
REMARK   33  A    between atoms: _70  and  _71
REMARK   34  A    between atoms: _71  and  _72
REMARK   35  A    between atoms: _72  and  _73
REMARK   36  A    between atoms: _77  and  _79
REMARK   37  A    between atoms: _79  and  _80
REMARK   38  A    between atoms: _79  and  _82
REMARK   39  A    between atoms: _82  and  _83
REMARK   40  A    between atoms: _88  and  _89
REMARK   41  A    between atoms: _91  and  _93
REMARK   42  A    between atoms: _93  and  _94
REMARK   43  A    between atoms: _93  and  _96
REMARK   44  A    between atoms: _96  and  _97
REMARK   45  A    between atoms: _102  and  _104
REMARK   46  A    between atoms: _104  and  _105
REMARK   47  A    between atoms: _104  and  _107
REMARK   48  A    between atoms: _111  and  _112
REMARK   49  A    between atoms: _117  and  _119
REMARK   50  A    between atoms: _119  and  _120
REMARK   51  A    between atoms: _119  and  _122
REMARK   52  A    between atoms: _122  and  _123
REMARK   53  A    between atoms: _129  and  _131
REMARK   54  A    between atoms: _131  and  _132
REMARK   55  A    between atoms: _134  and  _136
REMARK   56  A    between atoms: _136  and  _137
REMARK   57  A    between atoms: _136  and  _139
REMARK   58  A    between atoms: _139  and  _140
REMARK   59  A    between atoms: _140  and  _141
REMARK   60  A    between atoms: _144  and  _146
REMARK   61  A    between atoms: _146  and  _147
REMARK   62  A    between atoms: _150  and  _152
REMARK   63  A    between atoms: _152  and  _153
REMARK   64  A    between atoms: _152  and  _155
REMARK   65  A    between atoms: _155  and  _156
REMARK   66  A    between atoms: _161  and  _163
REMARK   67  A    between atoms: _163  and  _164
REMARK   68  A    between atoms: _167  and  _169
REMARK   69  A    between atoms: _169  and  _170
REMARK   70  A    between atoms: _169  and  _172
REMARK   71  A    between atoms: _172  and  _173
REMARK   72  A    between atoms: _173  and  _174
REMARK   73  A    between atoms: _174  and  _175
REMARK   74  A    between atoms: _175  and  _176
REMARK   75  A    between atoms: _180  and  _182
REMARK   76  A    between atoms: _182  and  _183
REMARK   77  A    between atoms: _182  and  _185
REMARK   78  A    between atoms: _185  and  _186
REMARK   79  A    between atoms: _186  and  _187
REMARK   80  A    between atoms: _187  and  _188
REMARK   81  A    between atoms: _197  and  _199
REMARK   82  A    between atoms: _199  and  _200
REMARK   83  A    between atoms: _199  and  _202
REMARK   84  A    between atoms: _202  and  _203
REMARK   85  A    between atoms: _203  and  _204
REMARK   86  A    between atoms: _207  and  _209
REMARK   87  A    between atoms: _209  and  _210
REMARK   88  A    between atoms: _209  and  _212
REMARK   89  A    between atoms: _215  and  _217
REMARK   90  A    between atoms: _217  and  _218
REMARK   91  A    between atoms: _221  and  _223
REMARK   92  A    between atoms: _223  and  _224
REMARK   93  A    between atoms: _223  and  _226
REMARK   94  A    between atoms: _226  and  _227
REMARK   95  A    between atoms: _237  and  _239
REMARK   96  A    between atoms: _239  and  _240
REMARK   97  A    between atoms: _239  and  _242
REMARK   98  A    between atoms: _245  and  _247
REMARK   99  A    between atoms: _247  and  _248
REMARK  100  A    between atoms: _247  and  _250
REMARK  101  A    between atoms: _250  and  _251
REMARK  102  A    between atoms: _254  and  _256
REMARK  103  A    between atoms: _256  and  _257
REMARK  104  A    between atoms: _256  and  _259
REMARK  105  A    between atoms: _259  and  _260
REMARK  106  A    between atoms: _266  and  _268
REMARK  107  A    between atoms: _268  and  _269
REMARK  108  A    between atoms: _268  and  _271
REMARK  109  A    between atoms: _271  and  _272
REMARK  110  A    between atoms: _272  and  _273
REMARK  111  A    between atoms: _278  and  _280
REMARK  112  A    between atoms: _280  and  _281
REMARK  113  A    between atoms: _280  and  _283
REMARK  114  A    between atoms: _286  and  _288
REMARK  115  A    between atoms: _288  and  _289
REMARK  116  A    between atoms: _288  and  _291
REMARK  117  A    between atoms: _291  and  _292
REMARK  118  A    between atoms: _295  and  _297
REMARK  119  A    between atoms: _297  and  _298
REMARK  120  A    between atoms: _297  and  _300
REMARK  121  A    between atoms: _300  and  _301
REMARK  122  A    between atoms: _304  and  _306
REMARK  123  A    between atoms: _306  and  _307
REMARK  124  A    between atoms: _306  and  _309
REMARK  125  A    between atoms: _309  and  _310
REMARK  126  A    between atoms: _313  and  _315
REMARK  127  A    between atoms: _315  and  _316
REMARK  128  A    between atoms: _315  and  _318
REMARK  129  A    between atoms: _318  and  _319
REMARK  130  A    between atoms: _322  and  _324
REMARK  131  A    between atoms: _324  and  _325
REMARK  132  A    between atoms: _324  and  _327
REMARK  133  A    between atoms: _327  and  _328
REMARK  134  A    between atoms: _328  and  _329
REMARK  135  A    between atoms: _329  and  _330
REMARK  136  A    between atoms: _339  and  _341
REMARK  137  A    between atoms: _341  and  _342
REMARK  138  A    between atoms: _341  and  _344
REMARK  139  A    between atoms: _344  and  _345
REMARK  140  A    between atoms: _348  and  _350
REMARK  141  A    between atoms: _350  and  _351
REMARK  142  A    between atoms: _350  and  _353
REMARK  143  A    between atoms: _353  and  _354
REMARK  144  A    between atoms: _358  and  _359
REMARK  145  A    between atoms: _364  and  _366
REMARK  146  A    between atoms: _366  and  _367
REMARK  147  A    between atoms: _366  and  _369
REMARK  148  A    between atoms: _369  and  _370
REMARK  149  A    between atoms: _375  and  _376
REMARK  150  A    between atoms: _378  and  _380
REMARK  151  A    between atoms: _380  and  _381
REMARK  152  A    between atoms: _380  and  _383
REMARK  153  A    between atoms: _383  and  _384
REMARK  154  A    between atoms: _394  and  _396
REMARK  155  A    between atoms: _396  and  _397
REMARK  156  A    between atoms: _396  and  _399
REMARK  157  A    between atoms: _399  and  _400
REMARK  158  A    between atoms: _406  and  _408
REMARK  159  A    between atoms: _408  and  _409
REMARK  160  A    between atoms: _408  and  _411
REMARK  161  A    between atoms: _411  and  _412
REMARK  162  A    between atoms: _415  and  _417
REMARK  163  A    between atoms: _417  and  _418
REMARK  164  A    between atoms: _417  and  _420
REMARK  165  A    between atoms: _420  and  _421
REMARK  166  A    between atoms: _431  and  _433
REMARK  167  A    between atoms: _433  and  _434
REMARK  168  A    between atoms: _433  and  _436
REMARK  169  A    between atoms: _436  and  _437
REMARK  170  A    between atoms: _437  and  _438
REMARK  171  A    between atoms: _440  and  _442
REMARK  172  A    between atoms: _442  and  _443
REMARK  173  A    between atoms: _442  and  _445
REMARK  174  A    between atoms: _445  and  _446
REMARK  175  A    between atoms: _451  and  _453
REMARK  176  A    between atoms: _453  and  _454
REMARK  177  A    between atoms: _457  and  _458
REMARK  178  A    between atoms: _463  and  _465
REMARK  179  A    between atoms: _465  and  _466
REMARK  180  A    between atoms: _465  and  _468
REMARK  181  A    between atoms: _468  and  _469
REMARK  182  A    between atoms: _479  and  _481
REMARK  183  A    between atoms: _481  and  _482
REMARK  184  A    between atoms: _486  and  _487
REMARK  185  A    between atoms: _492  and  _494
REMARK  186  A    between atoms: _494  and  _495
REMARK  187  A    between atoms: _494  and  _497
REMARK  188  A    between atoms: _497  and  _498
REMARK  189  A    between atoms: _498  and  _499
REMARK  190  A    between atoms: _504  and  _506
REMARK  191  A    between atoms: _506  and  _507
REMARK  192  A    between atoms: _509  and  _511
REMARK  193  A    between atoms: _511  and  _512
REMARK  194  A    between atoms: _514  and  _516
REMARK  195  A    between atoms: _516  and  _517
REMARK  196  A    between atoms: _516  and  _519
REMARK  197  A    between atoms: _519  and  _520
REMARK  198  A    between atoms: _530  and  _532
REMARK  199  A    between atoms: _532  and  _533
REMARK  200  A    between atoms: _532  and  _535
REMARK  201  A    between atoms: _535  and  _536
REMARK  202  A    between atoms: _539  and  _541
REMARK  203  A    between atoms: _541  and  _542
REMARK  204  A    between atoms: _541  and  _544
REMARK  205  A    between atoms: _544  and  _545
REMARK  206  A    between atoms: _548  and  _550
REMARK  207  A    between atoms: _550  and  _551
REMARK  208  A    between atoms: _550  and  _553
REMARK  209  A    between atoms: _553  and  _554
REMARK  210  A    between atoms: _554  and  _555
REMARK  211  A    between atoms: _555  and  _556
REMARK  212  A    between atoms: _565  and  _567
REMARK  213  A    between atoms: _567  and  _568
REMARK  214  A    between atoms: _567  and  _570
REMARK  215  A    between atoms: _570  and  _571
REMARK  216  A    between atoms: _581  and  _583
REMARK  217  A    between atoms: _583  and  _584
REMARK  218  A    between atoms: _586  and  _588
REMARK  219  A    between atoms: _588  and  _589
REMARK  220  A    between atoms: _588  and  _591
REMARK  221  A    between atoms: _591  and  _592
REMARK  222  A    between atoms: _597  and  _599
REMARK  223  A    between atoms: _599  and  _600
REMARK  224  A    between atoms: _603  and  _605
REMARK  225  A    between atoms: _605  and  _606
REMARK  226  A    between atoms: _605  and  _608
REMARK  227  A    between atoms: _608  and  _609
REMARK  228  A    between atoms: _612  and  _614
REMARK  229  A    between atoms: _614  and  _615
REMARK  230  A    between atoms: _614  and  _617
REMARK  231  A    between atoms: _617  and  _618
REMARK  232  A    between atoms: _624  and  _626
REMARK  233  A    between atoms: _626  and  _627
REMARK  234  A    between atoms: _626  and  _629
REMARK  235  A    between atoms: _629  and  _630
REMARK  236  A    between atoms: _630  and  _631
REMARK  237  A    between atoms: _635  and  _636
REMARK  238  A    between atoms: _641  and  _643
REMARK  239  A    between atoms: _643  and  _644
REMARK  240  A    between atoms: _643  and  _646
REMARK  241  A    between atoms: _646  and  _647
REMARK  242  A    between atoms: _647  and  _648
REMARK  243  A    between atoms: _648  and  _649
REMARK                            x       y       z     vdW  Elec       q    Type
REMARK                         _______ _______ _______ _____ _____    ______ ____
ROOT
ATOM      1  CA  MET A   1     -16.922   2.806  19.659  0.00  0.00    +0.134 C 
ENDROOT
BRANCH   1   2
ATOM      2  N   MET A   1     -17.596   1.878  18.741  0.00  0.00    -0.239 NA
ATOM      3  H   MET A   1     -17.174   0.943  18.569  0.00  0.00    +0.142 HD
ENDBRANCH   1   2
BRANCH   1   4
ATOM      4  C   MET A   1     -16.460   4.049  18.921  0.00  0.00    +0.224 C 
ATOM      5  O   MET A   1     -16.780   5.182  19.326  0.00  0.00    -0.287 OA
ENDBRANCH   1   4
BRANCH   1   6
ATOM      6  CB  MET A   1     -15.736   2.131  20.348  0.00  0.00    +0.037 C 
BRANCH   6   7
ATOM      7  CG  MET A   1     -15.003   3.079  21.281  0.00  0.00    +0.059 C 
BRANCH   7   8
ATOM      8  SD  MET A   1     -13.879   2.198  22.376  0.00  0.00    -0.139 S 
ATOM      9  CE  MET A   1     -12.856   1.344  21.192  0.00  0.00    +0.069 C 
ENDBRANCH   7   8
ENDBRANCH   6   7
ENDBRANCH   1   6
TORSDOF 5
REMARK  Name = ../refined-set-2016/3k02/3k02_pocket.pdb
REMARK  243 active torsions:
REMARK  status: ('A' for Active; 'I' for Inactive)
REMARK    1  A    between atoms: _1  and  _3
REMARK    2  A    between atoms: _3  and  _4
REMARK    3  A    between atoms: _3  and  _6
REMARK    4  A    between atoms: _6  and  _7
REMARK    5  A    between atoms: _10  and  _12
REMARK    6  A    between atoms: _12  and  _13
REMARK    7  A    between atoms: _12  and  _15
REMARK    8  A    between atoms: _15  and  _16
REMARK    9  A    between atoms: _19  and  _21
REMARK   10  A    between atoms: _21  and  _22
REMARK   11  A    between atoms: _21  and  _24
REMARK   12  A    between atoms: _24  and  _25
REMARK   13  A    between atoms: _27  and  _29
REMARK   14  A    between atoms: _29  and  _30
REMARK   15  A    between atoms: _29  and  _32
REMARK   16  A    between atoms: _32  and  _33
REMARK   17  A    between atoms: _38  and  _40
REMARK   18  A    between atoms: _40  and  _41
REMARK   19  A    between atoms: _40  and  _43
REMARK   20  A    between atoms: _43  and  _44
REMARK   21  A    between atoms: _44  and  _45
REMARK   22  A    between atoms: _48  and  _50
REMARK   23  A    between atoms: _50  and  _51
REMARK   24  A    between atoms: _54  and  _56
REMARK   25  A    between atoms: _56  and  _57
REMARK   26  A    between atoms: _56  and  _59
REMARK   27  A    between atoms: _59  and  _60
REMARK   28  A    between atoms: _60  and  _61
REMARK   29  A    between atoms: _64  and  _66
REMARK   30  A    between atoms: _66  and  _67
REMARK   31  A    between atoms: _66  and  _69
REMARK   32  A    between atoms: _69  and  _70
REMARK   33  A    between atoms: _70  and  _71
REMARK   34  A    between atoms: _71  and  _72
REMARK   35  A    between atoms: _72  and  _73
REMARK   36  A    between atoms: _77  and  _79
REMARK   37  A    between atoms: _79  and  _80
REMARK   38  A    between atoms: _79  and  _82
REMARK   39  A    between atoms: _82  and  _83
REMARK   40  A    between atoms: _88  and  _89
REMARK   41  A    between atoms: _91  and  _93
REMARK   42  A    between atoms: _93  and  _94
REMARK   43  A    between atoms: _93  and  _96
REMARK   44  A    between atoms: _96  and  _97
REMARK   45  A    between atoms: _102  and  _104
REMARK   46  A    between atoms: _104  and  _105
REMARK   47  A    between atoms: _104  and  _107
REMARK   48  A    between atoms: _111  and  _112
REMARK   49  A    between atoms: _117  and  _119
REMARK   50  A    between atoms: _119  and  _120
REMARK   51  A    between atoms: _119  and  _122
REMARK   52  A    between atoms: _122  and  _123
REMARK   53  A    between atoms: _129  and  _131
REMARK   54  A    between atoms: _131  and  _132
REMARK   55  A    between atoms: _134  and  _136
REMARK   56  A    between atoms: _136  and  _137
REMARK   57  A    between atoms: _136  and  _139
REMARK   58  A    between atoms: _139  and  _140
REMARK   59  A    between atoms: _140  and  _141
REMARK   60  A    between atoms: _144  and  _146
REMARK   61  A    between atoms: _146  and  _147
REMARK   62  A    between atoms: _150  and  _152
REMARK   63  A    between atoms: _152  and  _153
REMARK   64  A    between atoms: _152  and  _155
REMARK   65  A    between atoms: _155  and  _156
REMARK   66  A    between atoms: _161  and  _163
REMARK   67  A    between atoms: _163  and  _164
REMARK   68  A    between atoms: _167  and  _169
REMARK   69  A    between atoms: _169  and  _170
REMARK   70  A    between atoms: _169  and  _172
REMARK   71  A    between atoms: _172  and  _173
REMARK   72  A    between atoms: _173  and  _174
REMARK   73  A    between atoms: _174  and  _175
REMARK   74  A    between atoms: _175  and  _176
REMARK   75  A    between atoms: _180  and  _182
REMARK   76  A    between atoms: _182  and  _183
REMARK   77  A    between atoms: _182  and  _185
REMARK   78  A    between atoms: _185  and  _186
REMARK   79  A    between atoms: _186  and  _187
REMARK   80  A    between atoms: _187  and  _188
REMARK   81  A    between atoms: _197  and  _199
REMARK   82  A    between atoms: _199  and  _200
REMARK   83  A    between atoms: _199  and  _202
REMARK   84  A    between atoms: _202  and  _203
REMARK   85  A    between atoms: _203  and  _204
REMARK   86  A    between atoms: _207  and  _209
REMARK   87  A    between atoms: _209  and  _210
REMARK   88  A    between atoms: _209  and  _212
REMARK   89  A    between atoms: _215  and  _217
REMARK   90  A    between atoms: _217  and  _218
REMARK   91  A    between atoms: _221  and  _223
REMARK   92  A    between atoms: _223  and  _224
REMARK   93  A    between atoms: _223  and  _226
REMARK   94  A    between atoms: _226  and  _227
REMARK   95  A    between atoms: _237  and  _239
REMARK   96  A    between atoms: _239  and  _240
REMARK   97  A    between atoms: _239  and  _242
REMARK   98  A    between atoms: _245  and  _247
REMARK   99  A    between atoms: _247  and  _248
REMARK  100  A    between atoms: _247  and  _250
REMARK  101  A    between atoms: _250  and  _251
REMARK  102  A    between atoms: _254  and  _256
REMARK  103  A    between atoms: _256  and  _257
REMARK  104  A    between atoms: _256  and  _259
REMARK  105  A    between atoms: _259  and  _260
REMARK  106  A    between atoms: _266  and  _268
REMARK  107  A    between atoms: _268  and  _269
REMARK  108  A    between atoms: _268  and  _271
REMARK  109  A    between atoms: _271  and  _272
REMARK  110  A    between atoms: _272  and  _273
REMARK  111  A    between atoms: _278  and  _280
REMARK  112  A    between atoms: _280  and  _281
REMARK  113  A    between atoms: _280  and  _283
REMARK  114  A    between atoms: _286  and  _288
REMARK  115  A    between atoms: _288  and  _289
REMARK  116  A    between atoms: _288  and  _291
REMARK  117  A    between atoms: _291  and  _292
REMARK  118  A    between atoms: _295  and  _297
REMARK  119  A    between atoms: _297  and  _298
REMARK  120  A    between atoms: _297  and  _300
REMARK  121  A    between atoms: _300  and  _301
REMARK  122  A    between atoms: _304  and  _306
REMARK  123  A    between atoms: _306  and  _307
REMARK  124  A    between atoms: _306  and  _309
REMARK  125  A    between atoms: _309  and  _310
REMARK  126  A    between atoms: _313  and  _315
REMARK  127  A    between atoms: _315  and  _316
REMARK  128  A    between atoms: _315  and  _318
REMARK  129  A    between atoms: _318  and  _319
REMARK  130  A    between atoms: _322  and  _324
REMARK  131  A    between atoms: _324  and  _325
REMARK  132  A    between atoms: _324  and  _327
REMARK  133  A    between atoms: _327  and  _328
REMARK  134  A    between atoms: _328  and  _329
REMARK  135  A    between atoms: _329  and  _330
REMARK  136  A    between atoms: _339  and  _341
REMARK  137  A    between atoms: _341  and  _342
REMARK  138  A    between atoms: _341  and  _344
REMARK  139  A    between atoms: _344  and  _345
REMARK  140  A    between atoms: _348  and  _350
REMARK  141  A    between atoms: _350  and  _351
REMARK  142  A    between atoms: _350  and  _353
REMARK  143  A    between atoms: _353  and  _354
REMARK  144  A    between atoms: _358  and  _359
REMARK  145  A    between atoms: _364  and  _366
REMARK  146  A    between atoms: _366  and  _367
REMARK  147  A    between atoms: _366  and  _369
REMARK  148  A    between atoms: _369  and  _370
REMARK  149  A    between atoms: _375  and  _376
REMARK  150  A    between atoms: _378  and  _380
REMARK  151  A    between atoms: _380  and  _381
REMARK  152  A    between atoms: _380  and  _383
REMARK  153  A    between atoms: _383  and  _384
REMARK  154  A    between atoms: _394  and  _396
REMARK  155  A    between atoms: _396  and  _397
REMARK  156  A    between atoms: _396  and  _399
REMARK  157  A    between atoms: _399  and  _400
REMARK  158  A    between atoms: _406  and  _408
REMARK  159  A    between atoms: _408  and  _409
REMARK  160  A    between atoms: _408  and  _411
REMARK  161  A    between atoms: _411  and  _412
REMARK  162  A    between atoms: _415  and  _417
REMARK  163  A    between atoms: _417  and  _418
REMARK  164  A    between atoms: _417  and  _420
REMARK  165  A    between atoms: _420  and  _421
REMARK  166  A    between atoms: _431  and  _433
REMARK  167  A    between atoms: _433  and  _434
REMARK  168  A    between atoms: _433  and  _436
REMARK  169  A    between atoms: _436  and  _437
REMARK  170  A    between atoms: _437  and  _438
REMARK  171  A    between atoms: _440  and  _442
REMARK  172  A    between atoms: _442  and  _443
REMARK  173  A    between atoms: _442  and  _445
REMARK  174  A    between atoms: _445  and  _446
REMARK  175  A    between atoms: _451  and  _453
REMARK  176  A    between atoms: _453  and  _454
REMARK  177  A    between atoms: _457  and  _458
REMARK  178  A    between atoms: _463  and  _465
REMARK  179  A    between atoms: _465  and  _466
REMARK  180  A    between atoms: _465  and  _468
REMARK  181  A    between atoms: _468  and  _469
REMARK  182  A    between atoms: _479  and  _481
REMARK  183  A    between atoms: _481  and  _482
REMARK  184  A    between atoms: _486  and  _487
REMARK  185  A    between atoms: _492  and  _494
REMARK  186  A    between atoms: _494  and  _495
REMARK  187  A    between atoms: _494  and  _497
REMARK  188  A    between atoms: _497  and  _498
REMARK  189  A    between atoms: _498  and  _499
REMARK  190  A    between atoms: _504  and  _506
REMARK  191  A    between atoms: _506  and  _507
REMARK  192  A    between atoms: _509  and  _511
REMARK  193  A    between atoms: _511  and  _512
REMARK  194  A    between atoms: _514  and  _516
REMARK  195  A    between atoms: _516  and  _517
REMARK  196  A    between atoms: _516  and  _519
REMARK  197  A    between atoms: _519  and  _520
REMARK  198  A    between atoms: _530  and  _532
REMARK  199  A    between atoms: _532  and  _533
REMARK  200  A    between atoms: _532  and  _535
REMARK  201  A    between atoms: _535  and  _536
REMARK  202  A    between atoms: _539  and  _541
REMARK  203  A    between atoms: _541  and  _542
REMARK  204  A    between atoms: _541  and  _544
REMARK  205  A    between atoms: _544  and  _545
REMARK  206  A    between atoms: _548  and  _550
REMARK  207  A    between atoms: _550  and  _551
REMARK  208  A    between atoms: _550  and  _553
REMARK  209  A    between atoms: _553  and  _554
REMARK  210  A    between atoms: _554  and  _555
REMARK  211  A    between atoms: _555  and  _556
REMARK  212  A    between atoms: _565  and  _567
REMARK  213  A    between atoms: _567  and  _568
REMARK  214  A    between atoms: _567  and  _570
REMARK  215  A    between atoms: _570  and  _571
REMARK  216  A    between atoms: _581  and  _583
REMARK  217  A    between atoms: _583  and  _584
REMARK  218  A    between atoms: _586  and  _588
REMARK  219  A    between atoms: _588  and  _589
REMARK  220  A    between atoms: _588  and  _591
REMARK  221  A    between atoms: _591  and  _592
REMARK  222  A    between atoms: _597  and  _599
REMARK  223  A    between atoms: _599  and  _600
REMARK  224  A    between atoms: _603  and  _605
REMARK  225  A    between atoms: _605  and  _606
REMARK  226  A    between atoms: _605  and  _608
REMARK  227  A    between atoms: _608  and  _609
REMARK  228  A    between atoms: _612  and  _614
REMARK  229  A    between atoms: _614  and  _615
REMARK  230  A    between atoms: _614  and  _617
REMARK  231  A    between atoms: _617  and  _618
REMARK  232  A    between atoms: _624  and  _626
REMARK  233  A    between atoms: _626  and  _627
REMARK  234  A    between atoms: _626  and  _629
REMARK  235  A    between atoms: _629  and  _630
REMARK  236  A    between atoms: _630  and  _631
REMARK  237  A    between atoms: _635  and  _636
REMARK  238  A    between atoms: _641  and  _643
REMARK  239  A    between atoms: _643  and  _644
REMARK  240  A    between atoms: _643  and  _646
REMARK  241  A    between atoms: _646  and  _647
REMARK  242  A    between atoms: _647  and  _648
REMARK  243  A    between atoms: _648  and  _649
REMARK                            x       y       z     vdW  Elec       q    Type
REMARK                         _______ _______ _______ _____ _____    ______ ____
ROOT
ATOM      1  C   PRO A   3      -3.001   5.134  19.375  0.00  0.00    +0.241 C 
ATOM      2  N   TRP A   4      -3.304   3.855  19.125  0.00  0.00    -0.297 N 
ATOM      3  H   TRP A   4      -3.251   3.168  19.904  0.00  0.00    +0.150 HD
ATOM      4  O   PRO A   3      -2.997   6.029  18.520  0.00  0.00    -0.273 OA
ENDROOT
BRANCH   1  10
ATOM      5  C   GLY A   2      -4.668   4.483  21.879  0.00  0.00    +0.246 C 
ATOM      6  N   PRO A   3      -3.330   4.602  21.807  0.00  0.00    -0.272 N 
ATOM      7  CD  PRO A   3      -2.334   3.934  22.673  0.00  0.00    +0.094 C 
ATOM      8  CG  PRO A   3      -1.124   4.809  22.535  0.00  0.00    +0.024 C 
ATOM      9  CB  PRO A   3      -1.193   5.370  21.111  0.00  0.00    +0.031 C 
ATOM     10  CA  PRO A   3      -2.689   5.491  20.815  0.00  0.00    +0.152 C 
ATOM     11  O   GLY A   2      -5.444   5.030  21.062  0.00  0.00    -0.273 OA
BRANCH   5  12
ATOM     12  CA  GLY A   2      -5.230   3.602  23.001  0.00  0.00    +0.176 C 
BRANCH  12  15
ATOM     13  C   ASN A   1      -7.405   3.799  24.046  0.00  0.00    +0.239 C 
ATOM     14  O   ASN A   1      -6.898   4.252  25.065  0.00  0.00    -0.274 OA
ATOM     15  N   GLY A   2      -6.686   3.449  22.990  0.00  0.00    -0.296 N 
ATOM     16  H   GLY A   2      -7.159   3.063  22.148  0.00  0.00    +0.150 HD
BRANCH  13  17
ATOM     17  CA  ASN A   1      -8.909   3.597  23.940  0.00  0.00    +0.154 C 
BRANCH  17  18
ATOM     18  N   ASN A   1      -9.588   4.057  25.154  0.00  0.00    -0.238 NA
ATOM     19  H   ASN A   1      -9.123   4.738  25.788  0.00  0.00    +0.142 HD
ENDBRANCH  17  18
BRANCH  17  20
ATOM     20  CB  ASN A   1      -9.504   4.339  22.722  0.00  0.00    +0.111 C 
BRANCH  20  21
ATOM     21  CG  ASN A   1      -9.572   3.464  21.472  0.00  0.00    +0.221 C 
ATOM     22  OD1 ASN A   1      -8.758   2.561  21.281  0.00  0.00    -0.275 OA
ATOM     23  ND2 ASN A   1     -10.555   3.734  20.618  0.00  0.00    -0.329 N 
ATOM     24 HD21 ASN A   1     -11.221   4.507  20.819  0.00  0.00    +0.145 HD
ATOM     25 HD22 ASN A   1     -10.658   3.172  19.749  0.00  0.00    +0.145 HD
ENDBRANCH  20  21
ENDBRANCH  17  20
ENDBRANCH  13  17
ENDBRANCH  12  15
ENDBRANCH   5  12
ENDBRANCH   1  10
BRANCH   2  26
ATOM     26  CA  TRP A   4      -3.711   3.379  17.785  0.00  0.00    +0.153 C 
BRANCH  26  27
ATOM     27  C   TRP A   4      -5.035   4.000  17.314  0.00  0.00    +0.241 C 
ATOM     28  N   ALA A   5      -5.716   4.718  18.207  0.00  0.00    -0.298 N 
ATOM     29  H   ALA A   5      -5.343   4.810  19.173  0.00  0.00    +0.150 HD
ATOM     30  O   TRP A   4      -5.459   3.790  16.169  0.00  0.00    -0.273 OA
BRANCH  28  31
ATOM     31  CA  ALA A   5      -6.974   5.380  17.864  0.00  0.00    +0.137 C 
ATOM     32  CB  ALA A   5      -7.936   5.269  19.017  0.00  0.00    +0.030 C 
BRANCH  31  33
ATOM     33  C   ALA A   5      -6.826   6.856  17.513  0.00  0.00    +0.227 C 
ATOM     34  O   ALA A   5      -7.771   7.420  16.953  0.00  0.00    -0.286 OA
ENDBRANCH  31  33
ENDBRANCH  28  31
ENDBRANCH  26  27
BRANCH  26  35
ATOM     35  CB  TRP A   4      -3.799   1.836  17.755  0.00  0.00    +0.057 C 
BRANCH  35  36
ATOM     36  CG  TRP A   4      -4.810   1.339  18.738  0.00  0.00    -0.002 A 
ATOM     37  CD2 TRP A   4      -4.581   0.950  20.112  0.00  0.00    +0.013 A 
ATOM     38  CE3 TRP A   4      -3.437   0.853  20.926  0.00  0.00    +0.001 A 
ATOM     39  CZ3 TRP A   4      -3.585   0.399  22.237  0.00  0.00    +0.000 A 
ATOM     40  CH2 TRP A   4      -4.872   0.068  22.757  0.00  0.00    +0.001 A 
ATOM     41  CZ2 TRP A   4      -6.003   0.165  21.979  0.00  0.00    +0.017 A 
ATOM     42  CE2 TRP A   4      -5.843   0.604  20.657  0.00  0.00    +0.056 A 
ATOM     43  NE1 TRP A   4      -6.780   0.774  19.667  0.00  0.00    -0.352 N 
ATOM     44  HE1 TRP A   4      -7.801   0.600  19.765  0.00  0.00    +0.166 HD
ATOM     45  CD1 TRP A   4      -6.146   1.215  18.518  0.00  0.00    +0.068 A 
ENDBRANCH  35  36
ENDBRANCH  26  35
ENDBRANCH   2  26
TORSDOF 13
REMARK  Name = ../refined-set-2016/3k02/3k02_pocket.pdb
REMARK  243 active torsions:
REMARK  status: ('A' for Active; 'I' for Inactive)
REMARK    1  A    between atoms: _1  and  _3
REMARK    2  A    between atoms: _3  and  _4
REMARK    3  A    between atoms: _3  and  _6
REMARK    4  A    between atoms: _6  and  _7
REMARK    5  A    between atoms: _10  and  _12
REMARK    6  A    between atoms: _12  and  _13
REMARK    7  A    between atoms: _12  and  _15
REMARK    8  A    between atoms: _15  and  _16
REMARK    9  A    between atoms: _19  and  _21
REMARK   10  A    between atoms: _21  and  _22
REMARK   11  A    between atoms: _21  and  _24
REMARK   12  A    between atoms: _24  and  _25
REMARK   13  A    between atoms: _27  and  _29
REMARK   14  A    between atoms: _29  and  _30
REMARK   15  A    between atoms: _29  and  _32
REMARK   16  A    between atoms: _32  and  _33
REMARK   17  A    between atoms: _38  and  _40
REMARK   18  A    between atoms: _40  and  _41
REMARK   19  A    between atoms: _40  and  _43
REMARK   20  A    between atoms: _43  and  _44
REMARK   21  A    between atoms: _44  and  _45
REMARK   22  A    between atoms: _48  and  _50
REMARK   23  A    between atoms: _50  and  _51
REMARK   24  A    between atoms: _54  and  _56
REMARK   25  A    between atoms: _56  and  _57
REMARK   26  A    between atoms: _56  and  _59
REMARK   27  A    between atoms: _59  and  _60
REMARK   28  A    between atoms: _60  and  _61
REMARK   29  A    between atoms: _64  and  _66
REMARK   30  A    between atoms: _66  and  _67
REMARK   31  A    between atoms: _66  and  _69
REMARK   32  A    between atoms: _69  and  _70
REMARK   33  A    between atoms: _70  and  _71
REMARK   34  A    between atoms: _71  and  _72
REMARK   35  A    between atoms: _72  and  _73
REMARK   36  A    between atoms: _77  and  _79
REMARK   37  A    between atoms: _79  and  _80
REMARK   38  A    between atoms: _79  and  _82
REMARK   39  A    between atoms: _82  and  _83
REMARK   40  A    between atoms: _88  and  _89
REMARK   41  A    between atoms: _91  and  _93
REMARK   42  A    between atoms: _93  and  _94
REMARK   43  A    between atoms: _93  and  _96
REMARK   44  A    between atoms: _96  and  _97
REMARK   45  A    between atoms: _102  and  _104
REMARK   46  A    between atoms: _104  and  _105
REMARK   47  A    between atoms: _104  and  _107
REMARK   48  A    between atoms: _111  and  _112
REMARK   49  A    between atoms: _117  and  _119
REMARK   50  A    between atoms: _119  and  _120
REMARK   51  A    between atoms: _119  and  _122
REMARK   52  A    between atoms: _122  and  _123
REMARK   53  A    between atoms: _129  and  _131
REMARK   54  A    between atoms: _131  and  _132
REMARK   55  A    between atoms: _134  and  _136
REMARK   56  A    between atoms: _136  and  _137
REMARK   57  A    between atoms: _136  and  _139
REMARK   58  A    between atoms: _139  and  _140
REMARK   59  A    between atoms: _140  and  _141
REMARK   60  A    between atoms: _144  and  _146
REMARK   61  A    between atoms: _146  and  _147
REMARK   62  A    between atoms: _150  and  _152
REMARK   63  A    between atoms: _152  and  _153
REMARK   64  A    between atoms: _152  and  _155
REMARK   65  A    between atoms: _155  and  _156
REMARK   66  A    between atoms: _161  and  _163
REMARK   67  A    between atoms: _163  and  _164
REMARK   68  A    between atoms: _167  and  _169
REMARK   69  A    between atoms: _169  and  _170
REMARK   70  A    between atoms: _169  and  _172
REMARK   71  A    between atoms: _172  and  _173
REMARK   72  A    between atoms: _173  and  _174
REMARK   73  A    between atoms: _174  and  _175
REMARK   74  A    between atoms: _175  and  _176
REMARK   75  A    between atoms: _180  and  _182
REMARK   76  A    between atoms: _182  and  _183
REMARK   77  A    between atoms: _182  and  _185
REMARK   78  A    between atoms: _185  and  _186
REMARK   79  A    between atoms: _186  and  _187
REMARK   80  A    between atoms: _187  and  _188
REMARK   81  A    between atoms: _197  and  _199
REMARK   82  A    between atoms: _199  and  _200
REMARK   83  A    between atoms: _199  and  _202
REMARK   84  A    between atoms: _202  and  _203
REMARK   85  A    between atoms: _203  and  _204
REMARK   86  A    between atoms: _207  and  _209
REMARK   87  A    between atoms: _209  and  _210
REMARK   88  A    between atoms: _209  and  _212
REMARK   89  A    between atoms: _215  and  _217
REMARK   90  A    between atoms: _217  and  _218
REMARK   91  A    between atoms: _221  and  _223
REMARK   92  A    between atoms: _223  and  _224
REMARK   93  A    between atoms: _223  and  _226
REMARK   94  A    between atoms: _226  and  _227
REMARK   95  A    between atoms: _237  and  _239
REMARK   96  A    between atoms: _239  and  _240
REMARK   97  A    between atoms: _239  and  _242
REMARK   98  A    between atoms: _245  and  _247
REMARK   99  A    between atoms: _247  and  _248
REMARK  100  A    between atoms: _247  and  _250
REMARK  101  A    between atoms: _250  and  _251
REMARK  102  A    between atoms: _254  and  _256
REMARK  103  A    between atoms: _256  and  _257
REMARK  104  A    between atoms: _256  and  _259
REMARK  105  A    between atoms: _259  and  _260
REMARK  106  A    between atoms: _266  and  _268
REMARK  107  A    between atoms: _268  and  _269
REMARK  108  A    between atoms: _268  and  _271
REMARK  109  A    between atoms: _271  and  _272
REMARK  110  A    between atoms: _272  and  _273
REMARK  111  A    between atoms: _278  and  _280
REMARK  112  A    between atoms: _280  and  _281
REMARK  113  A    between atoms: _280  and  _283
REMARK  114  A    between atoms: _286  and  _288
REMARK  115  A    between atoms: _288  and  _289
REMARK  116  A    between atoms: _288  and  _291
REMARK  117  A    between atoms: _291  and  _292
REMARK  118  A    between atoms: _295  and  _297
REMARK  119  A    between atoms: _297  and  _298
REMARK  120  A    between atoms: _297  and  _300
REMARK  121  A    between atoms: _300  and  _301
REMARK  122  A    between atoms: _304  and  _306
REMARK  123  A    between atoms: _306  and  _307
REMARK  124  A    between atoms: _306  and  _309
REMARK  125  A    between atoms: _309  and  _310
REMARK  126  A    between atoms: _313  and  _315
REMARK  127  A    between atoms: _315  and  _316
REMARK  128  A    between atoms: _315  and  _318
REMARK  129  A    between atoms: _318  and  _319
REMARK  130  A    between atoms: _322  and  _324
REMARK  131  A    between atoms: _324  and  _325
REMARK  132  A    between atoms: _324  and  _327
REMARK  133  A    between atoms: _327  and  _328
REMARK  134  A    between atoms: _328  and  _329
REMARK  135  A    between atoms: _329  and  _330
REMARK  136  A    between atoms: _339  and  _341
REMARK  137  A    between atoms: _341  and  _342
REMARK  138  A    between atoms: _341  and  _344
REMARK  139  A    between atoms: _344  and  _345
REMARK  140  A    between atoms: _348  and  _350
REMARK  141  A    between atoms: _350  and  _351
REMARK  142  A    between atoms: _350  and  _353
REMARK  143  A    between atoms: _353  and  _354
REMARK  144  A    between atoms: _358  and  _359
REMARK  145  A    between atoms: _364  and  _366
REMARK  146  A    between atoms: _366  and  _367
REMARK  147  A    between atoms: _366  and  _369
REMARK  148  A    between atoms: _369  and  _370
REMARK  149  A    between atoms: _375  and  _376
REMARK  150  A    between atoms: _378  and  _380
REMARK  151  A    between atoms: _380  and  _381
REMARK  152  A    between atoms: _380  and  _383
REMARK  153  A    between atoms: _383  and  _384
REMARK  154  A    between atoms: _394  and  _396
REMARK  155  A    between atoms: _396  and  _397
REMARK  156  A    between atoms: _396  and  _399
REMARK  157  A    between atoms: _399  and  _400
REMARK  158  A    between atoms: _406  and  _408
REMARK  159  A    between atoms: _408  and  _409
REMARK  160  A    between atoms: _408  and  _411
REMARK  161  A    between atoms: _411  and  _412
REMARK  162  A    between atoms: _415  and  _417
REMARK  163  A    between atoms: _417  and  _418
REMARK  164  A    between atoms: _417  and  _420
REMARK  165  A    between atoms: _420  and  _421
REMARK  166  A    between atoms: _431  and  _433
REMARK  167  A    between atoms: _433  and  _434
REMARK  168  A    between atoms: _433  and  _436
REMARK  169  A    between atoms: _436  and  _437
REMARK  170  A    between atoms: _437  and  _438
REMARK  171  A    between atoms: _440  and  _442
REMARK  172  A    between atoms: _442  and  _443
REMARK  173  A    between atoms: _442  and  _445
REMARK  174  A    between atoms: _445  and  _446
REMARK  175  A    between atoms: _451  and  _453
REMARK  176  A    between atoms: _453  and  _454
REMARK  177  A    between atoms: _457  and  _458
REMARK  178  A    between atoms: _463  and  _465
REMARK  179  A    between atoms: _465  and  _466
REMARK  180  A    between atoms: _465  and  _468
REMARK  181  A    between atoms: _468  and  _469
REMARK  182  A    between atoms: _479  and  _481
REMARK  183  A    between atoms: _481  and  _482
REMARK  184  A    between atoms: _486  and  _487
REMARK  185  A    between atoms: _492  and  _494
REMARK  186  A    between atoms: _494  and  _495
REMARK  187  A    between atoms: _494  and  _497
REMARK  188  A    between atoms: _497  and  _498
REMARK  189  A    between atoms: _498  and  _499
REMARK  190  A    between atoms: _504  and  _506
REMARK  191  A    between atoms: _506  and  _507
REMARK  192  A    between atoms: _509  and  _511
REMARK  193  A    between atoms: _511  and  _512
REMARK  194  A    between atoms: _514  and  _516
REMARK  195  A    between atoms: _516  and  _517
REMARK  196  A    between atoms: _516  and  _519
REMARK  197  A    between atoms: _519  and  _520
REMARK  198  A    between atoms: _530  and  _532
REMARK  199  A    between atoms: _532  and  _533
REMARK  200  A    between atoms: _532  and  _535
REMARK  201  A    between atoms: _535  and  _536
REMARK  202  A    between atoms: _539  and  _541
REMARK  203  A    between atoms: _541  and  _542
REMARK  204  A    between atoms: _541  and  _544
REMARK  205  A    between atoms: _544  and  _545
REMARK  206  A    between atoms: _548  and  _550
REMARK  207  A    between atoms: _550  and  _551
REMARK  208  A    between atoms: _550  and  _553
REMARK  209  A    between atoms: _553  and  _554
REMARK  210  A    between atoms: _554  and  _555
REMARK  211  A    between atoms: _555  and  _556
REMARK  212  A    between atoms: _565  and  _567
REMARK  213  A    between atoms: _567  and  _568
REMARK  214  A    between atoms: _567  and  _570
REMARK  215  A    between atoms: _570  and  _571
REMARK  216  A    between atoms: _581  and  _583
REMARK  217  A    between atoms: _583  and  _584
REMARK  218  A    between atoms: _586  and  _588
REMARK  219  A    between atoms: _588  and  _589
REMARK  220  A    between atoms: _588  and  _591
REMARK  221  A    between atoms: _591  and  _592
REMARK  222  A    between atoms: _597  and  _599
REMARK  223  A    between atoms: _599  and  _600
REMARK  224  A    between atoms: _603  and  _605
REMARK  225  A    between atoms: _605  and  _606
REMARK  226  A    between atoms: _605  and  _608
REMARK  227  A    between atoms: _608  and  _609
REMARK  228  A    between atoms: _612  and  _614
REMARK  229  A    between atoms: _614  and  _615
REMARK  230  A    between atoms: _614  and  _617
REMARK  231  A    between atoms: _617  and  _618
REMARK  232  A    between atoms: _624  and  _626
REMARK  233  A    between atoms: _626  and  _627
REMARK  234  A    between atoms: _626  and  _629
REMARK  235  A    between atoms: _629  and  _630
REMARK  236  A    between atoms: _630  and  _631
REMARK  237  A    between atoms: _635  and  _636
REMARK  238  A    between atoms: _641  and  _643
REMARK  239  A    between atoms: _643  and  _644
REMARK  240  A    between atoms: _643  and  _646
REMARK  241  A    between atoms: _646  and  _647
REMARK  242  A    between atoms: _647  and  _648
REMARK  243  A    between atoms: _648  and  _649
REMARK                            x       y       z     vdW  Elec       q    Type
REMARK                         _______ _______ _______ _____ _____    ______ ____
ROOT
ATOM      1  C   GLY A   3       1.391  -3.251  24.478  0.00  0.00    +0.243 C 
ATOM      2  O   GLY A   3       2.328  -2.566  24.866  0.00  0.00    -0.273 OA
ATOM      3  N   GLY A   4       1.220  -3.613  23.222  0.00  0.00    -0.295 N 
ATOM      4  H   GLY A   4       0.408  -4.210  22.964  0.00  0.00    +0.150 HD
ENDROOT
BRANCH   1   5
ATOM      5  CA  GLY A   3       0.340  -3.736  25.450  0.00  0.00    +0.176 C 
BRANCH   5   8
ATOM      6  C   GLN A   2       0.392  -3.571  27.874  0.00  0.00    +0.241 C 
ATOM      7  O   GLN A   2       0.279  -4.809  28.019  0.00  0.00    -0.273 OA
ATOM      8  N   GLY A   3       0.410  -2.972  26.681  0.00  0.00    -0.295 N 
ATOM      9  H   GLY A   3       0.476  -1.935  26.633  0.00  0.00    +0.150 HD
BRANCH   6  10
ATOM     10  CA  GLN A   2       0.616  -2.647  29.077  0.00  0.00    +0.149 C 
BRANCH  10  12
ATOM     11  C   PRO A   1      -1.554  -2.191  30.081  0.00  0.00    +0.239 C 
ATOM     12  N   GLN A   2      -0.438  -2.894  30.062  0.00  0.00    -0.297 N 
ATOM     13  H   GLN A   2      -0.303  -3.646  30.768  0.00  0.00    +0.150 HD
ATOM     14  O   PRO A   1      -1.731  -1.176  29.385  0.00  0.00    -0.274 OA
BRANCH  11  16
ATOM     15  N   PRO A   1      -3.553  -1.628  31.526  0.00  0.00    -0.210 NA
ATOM     16  CA  PRO A   1      -2.644  -2.691  31.039  0.00  0.00    +0.149 C 
ATOM     17  CB  PRO A   1      -3.590  -3.654  30.297  0.00  0.00    +0.028 C 
ATOM     18  CG  PRO A   1      -4.671  -2.717  29.789  0.00  0.00    +0.021 C 
ATOM     19  CD  PRO A   1      -4.888  -1.738  30.911  0.00  0.00    +0.089 C 
ENDBRANCH  11  16
ENDBRANCH  10  12
BRANCH  10  20
ATOM     20  CB  GLN A   2       1.981  -2.981  29.687  0.00  0.00    +0.039 C 
BRANCH  20  21
ATOM     21  CG  GLN A   2       3.195  -2.733  28.762  0.00  0.00    +0.087 C 
BRANCH  21  22
ATOM     22  CD  GLN A   2       4.370  -3.657  29.103  0.00  0.00    +0.219 C 
ATOM     23  OE1 GLN A   2       4.476  -4.141  30.231  0.00  0.00    -0.275 OA
ATOM     24  NE2 GLN A   2       5.233  -3.923  28.130  0.00  0.00    -0.329 N 
ATOM     25 HE21 GLN A   2       6.035  -4.561  28.306  0.00  0.00    +0.145 HD
ATOM     26 HE22 GLN A   2       5.107  -3.493  27.191  0.00  0.00    +0.145 HD
ENDBRANCH  21  22
ENDBRANCH  20  21
ENDBRANCH  10  20
ENDBRANCH   6  10
ENDBRANCH   5   8
ENDBRANCH   1   5
BRANCH   3  27
ATOM     27  CA  GLY A   4       2.157  -3.185  22.190  0.00  0.00    +0.176 C 
BRANCH  27  28
ATOM     28  C   GLY A   4       2.483  -4.245  21.165  0.00  0.00    +0.243 C 
ATOM     29  O   GLY A   4       1.882  -5.344  21.125  0.00  0.00    -0.273 OA
ATOM     30  N   TRP A   5       3.466  -3.906  20.348  0.00  0.00    -0.298 N 
ATOM     31  H   TRP A   5       3.989  -3.028  20.543  0.00  0.00    +0.150 HD
BRANCH  30  32
ATOM     32  CA  TRP A   5       3.856  -4.700  19.185  0.00  0.00    +0.141 C 
BRANCH  32  33
ATOM     33  C   TRP A   5       5.368  -4.775  19.096  0.00  0.00    +0.227 C 
ATOM     34  O   TRP A   5       6.071  -3.786  19.377  0.00  0.00    -0.286 OA
ENDBRANCH  32  33
BRANCH  32  35
ATOM     35  CB  TRP A   5       3.267  -4.097  17.877  0.00  0.00    +0.056 C 
BRANCH  35  36
ATOM     36  CG  TRP A   5       1.790  -4.221  17.926  0.00  0.00    -0.002 A 
ATOM     37  CD1 TRP A   5       0.915  -3.352  18.547  0.00  0.00    +0.068 A 
ATOM     38  NE1 TRP A   5      -0.371  -3.863  18.495  0.00  0.00    -0.352 N 
ATOM     39  HE1 TRP A   5      -1.214  -3.418  18.910  0.00  0.00    +0.166 HD
ATOM     40  CE2 TRP A   5      -0.354  -5.046  17.811  0.00  0.00    +0.056 A 
ATOM     41  CZ2 TRP A   5      -1.409  -5.912  17.485  0.00  0.00    +0.017 A 
ATOM     42  CH2 TRP A   5      -1.099  -7.060  16.784  0.00  0.00    +0.001 A 
ATOM     43  CZ3 TRP A   5       0.242  -7.368  16.408  0.00  0.00    +0.000 A 
ATOM     44  CE3 TRP A   5       1.298  -6.500  16.741  0.00  0.00    +0.001 A 
ATOM     45  CD2 TRP A   5       1.002  -5.317  17.444  0.00  0.00    +0.013 A 
ENDBRANCH  35  36
ENDBRANCH  32  35
ENDBRANCH  30  32
ENDBRANCH  27  28
ENDBRANCH   3  27
TORSDOF 14
REMARK  Name = ../refined-set-2016/3k02/3k02_pocket.pdb
REMARK  243 active torsions:
REMARK  status: ('A' for Active; 'I' for Inactive)
REMARK    1  A    between atoms: _1  and  _3
REMARK    2  A    between atoms: _3  and  _4
REMARK    3  A    between atoms: _3  and  _6
REMARK    4  A    between atoms: _6  and  _7
REMARK    5  A    between atoms: _10  and  _12
REMARK    6  A    between atoms: _12  and  _13
REMARK    7  A    between atoms: _12  and  _15
REMARK    8  A    between atoms: _15  and  _16
REMARK    9  A    between atoms: _19  and  _21
REMARK   10  A    between atoms: _21  and  _22
REMARK   11  A    between atoms: _21  and  _24
REMARK   12  A    between atoms: _24  and  _25
REMARK   13  A    between atoms: _27  and  _29
REMARK   14  A    between atoms: _29  and  _30
REMARK   15  A    between atoms: _29  and  _32
REMARK   16  A    between atoms: _32  and  _33
REMARK   17  A    between atoms: _38  and  _40
REMARK   18  A    between atoms: _40  and  _41
REMARK   19  A    between atoms: _40  and  _43
REMARK   20  A    between atoms: _43  and  _44
REMARK   21  A    between atoms: _44  and  _45
REMARK   22  A    between atoms: _48  and  _50
REMARK   23  A    between atoms: _50  and  _51
REMARK   24  A    between atoms: _54  and  _56
REMARK   25  A    between atoms: _56  and  _57
REMARK   26  A    between atoms: _56  and  _59
REMARK   27  A    between atoms: _59  and  _60
REMARK   28  A    between atoms: _60  and  _61
REMARK   29  A    between atoms: _64  and  _66
REMARK   30  A    between atoms: _66  and  _67
REMARK   31  A    between atoms: _66  and  _69
REMARK   32  A    between atoms: _69  and  _70
REMARK   33  A    between atoms: _70  and  _71
REMARK   34  A    between atoms: _71  and  _72
REMARK   35  A    between atoms: _72  and  _73
REMARK   36  A    between atoms: _77  and  _79
REMARK   37  A    between atoms: _79  and  _80
REMARK   38  A    between atoms: _79  and  _82
REMARK   39  A    between atoms: _82  and  _83
REMARK   40  A    between atoms: _88  and  _89
REMARK   41  A    between atoms: _91  and  _93
REMARK   42  A    between atoms: _93  and  _94
REMARK   43  A    between atoms: _93  and  _96
REMARK   44  A    between atoms: _96  and  _97
REMARK   45  A    between atoms: _102  and  _104
REMARK   46  A    between atoms: _104  and  _105
REMARK   47  A    between atoms: _104  and  _107
REMARK   48  A    between atoms: _111  and  _112
REMARK   49  A    between atoms: _117  and  _119
REMARK   50  A    between atoms: _119  and  _120
REMARK   51  A    between atoms: _119  and  _122
REMARK   52  A    between atoms: _122  and  _123
REMARK   53  A    between atoms: _129  and  _131
REMARK   54  A    between atoms: _131  and  _132
REMARK   55  A    between atoms: _134  and  _136
REMARK   56  A    between atoms: _136  and  _137
REMARK   57  A    between atoms: _136  and  _139
REMARK   58  A    between atoms: _139  and  _140
REMARK   59  A    between atoms: _140  and  _141
REMARK   60  A    between atoms: _144  and  _146
REMARK   61  A    between atoms: _146  and  _147
REMARK   62  A    between atoms: _150  and  _152
REMARK   63  A    between atoms: _152  and  _153
REMARK   64  A    between atoms: _152  and  _155
REMARK   65  A    between atoms: _155  and  _156
REMARK   66  A    between atoms: _161  and  _163
REMARK   67  A    between atoms: _163  and  _164
REMARK   68  A    between atoms: _167  and  _169
REMARK   69  A    between atoms: _169  and  _170
REMARK   70  A    between atoms: _169  and  _172
REMARK   71  A    between atoms: _172  and  _173
REMARK   72  A    between atoms: _173  and  _174
REMARK   73  A    between atoms: _174  and  _175
REMARK   74  A    between atoms: _175  and  _176
REMARK   75  A    between atoms: _180  and  _182
REMARK   76  A    between atoms: _182  and  _183
REMARK   77  A    between atoms: _182  and  _185
REMARK   78  A    between atoms: _185  and  _186
REMARK   79  A    between atoms: _186  and  _187
REMARK   80  A    between atoms: _187  and  _188
REMARK   81  A    between atoms: _197  and  _199
REMARK   82  A    between atoms: _199  and  _200
REMARK   83  A    between atoms: _199  and  _202
REMARK   84  A    between atoms: _202  and  _203
REMARK   85  A    between atoms: _203  and  _204
REMARK   86  A    between atoms: _207  and  _209
REMARK   87  A    between atoms: _209  and  _210
REMARK   88  A    between atoms: _209  and  _212
REMARK   89  A    between atoms: _215  and  _217
REMARK   90  A    between atoms: _217  and  _218
REMARK   91  A    between atoms: _221  and  _223
REMARK   92  A    between atoms: _223  and  _224
REMARK   93  A    between atoms: _223  and  _226
REMARK   94  A    between atoms: _226  and  _227
REMARK   95  A    between atoms: _237  and  _239
REMARK   96  A    between atoms: _239  and  _240
REMARK   97  A    between atoms: _239  and  _242
REMARK   98  A    between atoms: _245  and  _247
REMARK   99  A    between atoms: _247  and  _248
REMARK  100  A    between atoms: _247  and  _250
REMARK  101  A    between atoms: _250  and  _251
REMARK  102  A    between atoms: _254  and  _256
REMARK  103  A    between atoms: _256  and  _257
REMARK  104  A    between atoms: _256  and  _259
REMARK  105  A    between atoms: _259  and  _260
REMARK  106  A    between atoms: _266  and  _268
REMARK  107  A    between atoms: _268  and  _269
REMARK  108  A    between atoms: _268  and  _271
REMARK  109  A    between atoms: _271  and  _272
REMARK  110  A    between atoms: _272  and  _273
REMARK  111  A    between atoms: _278  and  _280
REMARK  112  A    between atoms: _280  and  _281
REMARK  113  A    between atoms: _280  and  _283
REMARK  114  A    between atoms: _286  and  _288
REMARK  115  A    between atoms: _288  and  _289
REMARK  116  A    between atoms: _288  and  _291
REMARK  117  A    between atoms: _291  and  _292
REMARK  118  A    between atoms: _295  and  _297
REMARK  119  A    between atoms: _297  and  _298
REMARK  120  A    between atoms: _297  and  _300
REMARK  121  A    between atoms: _300  and  _301
REMARK  122  A    between atoms: _304  and  _306
REMARK  123  A    between atoms: _306  and  _307
REMARK  124  A    between atoms: _306  and  _309
REMARK  125  A    between atoms: _309  and  _310
REMARK  126  A    between atoms: _313  and  _315
REMARK  127  A    between atoms: _315  and  _316
REMARK  128  A    between atoms: _315  and  _318
REMARK  129  A    between atoms: _318  and  _319
REMARK  130  A    between atoms: _322  and  _324
REMARK  131  A    between atoms: _324  and  _325
REMARK  132  A    between atoms: _324  and  _327
REMARK  133  A    between atoms: _327  and  _328
REMARK  134  A    between atoms: _328  and  _329
REMARK  135  A    between atoms: _329  and  _330
REMARK  136  A    between atoms: _339  and  _341
REMARK  137  A    between atoms: _341  and  _342
REMARK  138  A    between atoms: _341  and  _344
REMARK  139  A    between atoms: _344  and  _345
REMARK  140  A    between atoms: _348  and  _350
REMARK  141  A    between atoms: _350  and  _351
REMARK  142  A    between atoms: _350  and  _353
REMARK  143  A    between atoms: _353  and  _354
REMARK  144  A    between atoms: _358  and  _359
REMARK  145  A    between atoms: _364  and  _366
REMARK  146  A    between atoms: _366  and  _367
REMARK  147  A    between atoms: _366  and  _369
REMARK  148  A    between atoms: _369  and  _370
REMARK  149  A    between atoms: _375  and  _376
REMARK  150  A    between atoms: _378  and  _380
REMARK  151  A    between atoms: _380  and  _381
REMARK  152  A    between atoms: _380  and  _383
REMARK  153  A    between atoms: _383  and  _384
REMARK  154  A    between atoms: _394  and  _396
REMARK  155  A    between atoms: _396  and  _397
REMARK  156  A    between atoms: _396  and  _399
REMARK  157  A    between atoms: _399  and  _400
REMARK  158  A    between atoms: _406  and  _408
REMARK  159  A    between atoms: _408  and  _409
REMARK  160  A    between atoms: _408  and  _411
REMARK  161  A    between atoms: _411  and  _412
REMARK  162  A    between atoms: _415  and  _417
REMARK  163  A    between atoms: _417  and  _418
REMARK  164  A    between atoms: _417  and  _420
REMARK  165  A    between atoms: _420  and  _421
REMARK  166  A    between atoms: _431  and  _433
REMARK  167  A    between atoms: _433  and  _434
REMARK  168  A    between atoms: _433  and  _436
REMARK  169  A    between atoms: _436  and  _437
REMARK  170  A    between atoms: _437  and  _438
REMARK  171  A    between atoms: _440  and  _442
REMARK  172  A    between atoms: _442  and  _443
REMARK  173  A    between atoms: _442  and  _445
REMARK  174  A    between atoms: _445  and  _446
REMARK  175  A    between atoms: _451  and  _453
REMARK  176  A    between atoms: _453  and  _454
REMARK  177  A    between atoms: _457  and  _458
REMARK  178  A    between atoms: _463  and  _465
REMARK  179  A    between atoms: _465  and  _466
REMARK  180  A    between atoms: _465  and  _468
REMARK  181  A    between atoms: _468  and  _469
REMARK  182  A    between atoms: _479  and  _481
REMARK  183  A    between atoms: _481  and  _482
REMARK  184  A    between atoms: _486  and  _487
REMARK  185  A    between atoms: _492  and  _494
REMARK  186  A    between atoms: _494  and  _495
REMARK  187  A    between atoms: _494  and  _497
REMARK  188  A    between atoms: _497  and  _498
REMARK  189  A    between atoms: _498  and  _499
REMARK  190  A    between atoms: _504  and  _506
REMARK  191  A    between atoms: _506  and  _507
REMARK  192  A    between atoms: _509  and  _511
REMARK  193  A    between atoms: _511  and  _512
REMARK  194  A    between atoms: _514  and  _516
REMARK  195  A    between atoms: _516  and  _517
REMARK  196  A    between atoms: _516  and  _519
REMARK  197  A    between atoms: _519  and  _520
REMARK  198  A    between atoms: _530  and  _532
REMARK  199  A    between atoms: _532  and  _533
REMARK  200  A    between atoms: _532  and  _535
REMARK  201  A    between atoms: _535  and  _536
REMARK  202  A    between atoms: _539  and  _541
REMARK  203  A    between atoms: _541  and  _542
REMARK  204  A    between atoms: _541  and  _544
REMARK  205  A    between atoms: _544  and  _545
REMARK  206  A    between atoms: _548  and  _550
REMARK  207  A    between atoms: _550  and  _551
REMARK  208  A    between atoms: _550  and  _553
REMARK  209  A    between atoms: _553  and  _554
REMARK  210  A    between atoms: _554  and  _555
REMARK  211  A    between atoms: _555  and  _556
REMARK  212  A    between atoms: _565  and  _567
REMARK  213  A    between atoms: _567  and  _568
REMARK  214  A    between atoms: _567  and  _570
REMARK  215  A    between atoms: _570  and  _571
REMARK  216  A    between atoms: _581  and  _583
REMARK  217  A    between atoms: _583  and  _584
REMARK  218  A    between atoms: _586  and  _588
REMARK  219  A    between atoms: _588  and  _589
REMARK  220  A    between atoms: _588  and  _591
REMARK  221  A    between atoms: _591  and  _592
REMARK  222  A    between atoms: _597  and  _599
REMARK  223  A    between atoms: _599  and  _600
REMARK  224  A    between atoms: _603  and  _605
REMARK  225  A    between atoms: _605  and  _606
REMARK  226  A    between atoms: _605  and  _608
REMARK  227  A    between atoms: _608  and  _609
REMARK  228  A    between atoms: _612  and  _614
REMARK  229  A    between atoms: _614  and  _615
REMARK  230  A    between atoms: _614  and  _617
REMARK  231  A    between atoms: _617  and  _618
REMARK  232  A    between atoms: _624  and  _626
REMARK  233  A    between atoms: _626  and  _627
REMARK  234  A    between atoms: _626  and  _629
REMARK  235  A    between atoms: _629  and  _630
REMARK  236  A    between atoms: _630  and  _631
REMARK  237  A    between atoms: _635  and  _636
REMARK  238  A    between atoms: _641  and  _643
REMARK  239  A    between atoms: _643  and  _644
REMARK  240  A    between atoms: _643  and  _646
REMARK  241  A    between atoms: _646  and  _647
REMARK  242  A    between atoms: _647  and  _648
REMARK  243  A    between atoms: _648  and  _649
REMARK                            x       y       z     vdW  Elec       q    Type
REMARK                         _______ _______ _______ _____ _____    ______ ____
ROOT
ATOM      1  CA  LEU A   1       0.864   8.440  14.013  0.00  0.00    +0.133 C 
ENDROOT
BRANCH   1   2
ATOM      2  N   LEU A   1       1.919   9.259  13.414  0.00  0.00    -0.239 NA
ATOM      3  H   LEU A   1       2.857   9.299  13.861  0.00  0.00    +0.142 HD
ENDBRANCH   1   2
BRANCH   1   4
ATOM      4  C   LEU A   1       0.639   8.651  15.503  0.00  0.00    +0.224 C 
ATOM      5  O   LEU A   1      -0.392   8.198  16.024  0.00  0.00    -0.287 OA
ENDBRANCH   1   4
BRANCH   1   6
ATOM      6  CB  LEU A   1       1.147   6.965  13.746  0.00  0.00    +0.025 C 
BRANCH   6   7
ATOM      7  CG  LEU A   1       1.052   6.517  12.281  0.00  0.00    +0.002 C 
ATOM      8  CD2 LEU A   1       1.271   5.017  12.239  0.00  0.00    +0.000 C 
ATOM      9  CD1 LEU A   1      -0.301   6.864  11.694  0.00  0.00    +0.000 C 
ENDBRANCH   6   7
ENDBRANCH   1   6
TORSDOF 4
REMARK  Name = ../refined-set-2016/3k02/3k02_pocket.pdb
REMARK  243 active torsions:
REMARK  status: ('A' for Active; 'I' for Inactive)
REMARK    1  A    between atoms: _1  and  _3
REMARK    2  A    between atoms: _3  and  _4
REMARK    3  A    between atoms: _3  and  _6
REMARK    4  A    between atoms: _6  and  _7
REMARK    5  A    between atoms: _10  and  _12
REMARK    6  A    between atoms: _12  and  _13
REMARK    7  A    between atoms: _12  and  _15
REMARK    8  A    between atoms: _15  and  _16
REMARK    9  A    between atoms: _19  and  _21
REMARK   10  A    between atoms: _21  and  _22
REMARK   11  A    between atoms: _21  and  _24
REMARK   12  A    between atoms: _24  and  _25
REMARK   13  A    between atoms: _27  and  _29
REMARK   14  A    between atoms: _29  and  _30
REMARK   15  A    between atoms: _29  and  _32
REMARK   16  A    between atoms: _32  and  _33
REMARK   17  A    between atoms: _38  and  _40
REMARK   18  A    between atoms: _40  and  _41
REMARK   19  A    between atoms: _40  and  _43
REMARK   20  A    between atoms: _43  and  _44
REMARK   21  A    between atoms: _44  and  _45
REMARK   22  A    between atoms: _48  and  _50
REMARK   23  A    between atoms: _50  and  _51
REMARK   24  A    between atoms: _54  and  _56
REMARK   25  A    between atoms: _56  and  _57
REMARK   26  A    between atoms: _56  and  _59
REMARK   27  A    between atoms: _59  and  _60
REMARK   28  A    between atoms: _60  and  _61
REMARK   29  A    between atoms: _64  and  _66
REMARK   30  A    between atoms: _66  and  _67
REMARK   31  A    between atoms: _66  and  _69
REMARK   32  A    between atoms: _69  and  _70
REMARK   33  A    between atoms: _70  and  _71
REMARK   34  A    between atoms: _71  and  _72
REMARK   35  A    between atoms: _72  and  _73
REMARK   36  A    between atoms: _77  and  _79
REMARK   37  A    between atoms: _79  and  _80
REMARK   38  A    between atoms: _79  and  _82
REMARK   39  A    between atoms: _82  and  _83
REMARK   40  A    between atoms: _88  and  _89
REMARK   41  A    between atoms: _91  and  _93
REMARK   42  A    between atoms: _93  and  _94
REMARK   43  A    between atoms: _93  and  _96
REMARK   44  A    between atoms: _96  and  _97
REMARK   45  A    between atoms: _102  and  _104
REMARK   46  A    between atoms: _104  and  _105
REMARK   47  A    between atoms: _104  and  _107
REMARK   48  A    between atoms: _111  and  _112
REMARK   49  A    between atoms: _117  and  _119
REMARK   50  A    between atoms: _119  and  _120
REMARK   51  A    between atoms: _119  and  _122
REMARK   52  A    between atoms: _122  and  _123
REMARK   53  A    between atoms: _129  and  _131
REMARK   54  A    between atoms: _131  and  _132
REMARK   55  A    between atoms: _134  and  _136
REMARK   56  A    between atoms: _136  and  _137
REMARK   57  A    between atoms: _136  and  _139
REMARK   58  A    between atoms: _139  and  _140
REMARK   59  A    between atoms: _140  and  _141
REMARK   60  A    between atoms: _144  and  _146
REMARK   61  A    between atoms: _146  and  _147
REMARK   62  A    between atoms: _150  and  _152
REMARK   63  A    between atoms: _152  and  _153
REMARK   64  A    between atoms: _152  and  _155
REMARK   65  A    between atoms: _155  and  _156
REMARK   66  A    between atoms: _161  and  _163
REMARK   67  A    between atoms: _163  and  _164
REMARK   68  A    between atoms: _167  and  _169
REMARK   69  A    between atoms: _169  and  _170
REMARK   70  A    between atoms: _169  and  _172
REMARK   71  A    between atoms: _172  and  _173
REMARK   72  A    between atoms: _173  and  _174
REMARK   73  A    between atoms: _174  and  _175
REMARK   74  A    between atoms: _175  and  _176
REMARK   75  A    between atoms: _180  and  _182
REMARK   76  A    between atoms: _182  and  _183
REMARK   77  A    between atoms: _182  and  _185
REMARK   78  A    between atoms: _185  and  _186
REMARK   79  A    between atoms: _186  and  _187
REMARK   80  A    between atoms: _187  and  _188
REMARK   81  A    between atoms: _197  and  _199
REMARK   82  A    between atoms: _199  and  _200
REMARK   83  A    between atoms: _199  and  _202
REMARK   84  A    between atoms: _202  and  _203
REMARK   85  A    between atoms: _203  and  _204
REMARK   86  A    between atoms: _207  and  _209
REMARK   87  A    between atoms: _209  and  _210
REMARK   88  A    between atoms: _209  and  _212
REMARK   89  A    between atoms: _215  and  _217
REMARK   90  A    between atoms: _217  and  _218
REMARK   91  A    between atoms: _221  and  _223
REMARK   92  A    between atoms: _223  and  _224
REMARK   93  A    between atoms: _223  and  _226
REMARK   94  A    between atoms: _226  and  _227
REMARK   95  A    between atoms: _237  and  _239
REMARK   96  A    between atoms: _239  and  _240
REMARK   97  A    between atoms: _239  and  _242
REMARK   98  A    between atoms: _245  and  _247
REMARK   99  A    between atoms: _247  and  _248
REMARK  100  A    between atoms: _247  and  _250
REMARK  101  A    between atoms: _250  and  _251
REMARK  102  A    between atoms: _254  and  _256
REMARK  103  A    between atoms: _256  and  _257
REMARK  104  A    between atoms: _256  and  _259
REMARK  105  A    between atoms: _259  and  _260
REMARK  106  A    between atoms: _266  and  _268
REMARK  107  A    between atoms: _268  and  _269
REMARK  108  A    between atoms: _268  and  _271
REMARK  109  A    between atoms: _271  and  _272
REMARK  110  A    between atoms: _272  and  _273
REMARK  111  A    between atoms: _278  and  _280
REMARK  112  A    between atoms: _280  and  _281
REMARK  113  A    between atoms: _280  and  _283
REMARK  114  A    between atoms: _286  and  _288
REMARK  115  A    between atoms: _288  and  _289
REMARK  116  A    between atoms: _288  and  _291
REMARK  117  A    between atoms: _291  and  _292
REMARK  118  A    between atoms: _295  and  _297
REMARK  119  A    between atoms: _297  and  _298
REMARK  120  A    between atoms: _297  and  _300
REMARK  121  A    between atoms: _300  and  _301
REMARK  122  A    between atoms: _304  and  _306
REMARK  123  A    between atoms: _306  and  _307
REMARK  124  A    between atoms: _306  and  _309
REMARK  125  A    between atoms: _309  and  _310
REMARK  126  A    between atoms: _313  and  _315
REMARK  127  A    between atoms: _315  and  _316
REMARK  128  A    between atoms: _315  and  _318
REMARK  129  A    between atoms: _318  and  _319
REMARK  130  A    between atoms: _322  and  _324
REMARK  131  A    between atoms: _324  and  _325
REMARK  132  A    between atoms: _324  and  _327
REMARK  133  A    between atoms: _327  and  _328
REMARK  134  A    between atoms: _328  and  _329
REMARK  135  A    between atoms: _329  and  _330
REMARK  136  A    between atoms: _339  and  _341
REMARK  137  A    between atoms: _341  and  _342
REMARK  138  A    between atoms: _341  and  _344
REMARK  139  A    between atoms: _344  and  _345
REMARK  140  A    between atoms: _348  and  _350
REMARK  141  A    between atoms: _350  and  _351
REMARK  142  A    between atoms: _350  and  _353
REMARK  143  A    between atoms: _353  and  _354
REMARK  144  A    between atoms: _358  and  _359
REMARK  145  A    between atoms: _364  and  _366
REMARK  146  A    between atoms: _366  and  _367
REMARK  147  A    between atoms: _366  and  _369
REMARK  148  A    between atoms: _369  and  _370
REMARK  149  A    between atoms: _375  and  _376
REMARK  150  A    between atoms: _378  and  _380
REMARK  151  A    between atoms: _380  and  _381
REMARK  152  A    between atoms: _380  and  _383
REMARK  153  A    between atoms: _383  and  _384
REMARK  154  A    between atoms: _394  and  _396
REMARK  155  A    between atoms: _396  and  _397
REMARK  156  A    between atoms: _396  and  _399
REMARK  157  A    between atoms: _399  and  _400
REMARK  158  A    between atoms: _406  and  _408
REMARK  159  A    between atoms: _408  and  _409
REMARK  160  A    between atoms: _408  and  _411
REMARK  161  A    between atoms: _411  and  _412
REMARK  162  A    between atoms: _415  and  _417
REMARK  163  A    between atoms: _417  and  _418
REMARK  164  A    between atoms: _417  and  _420
REMARK  165  A    between atoms: _420  and  _421
REMARK  166  A    between atoms: _431  and  _433
REMARK  167  A    between atoms: _433  and  _434
REMARK  168  A    between atoms: _433  and  _436
REMARK  169  A    between atoms: _436  and  _437
REMARK  170  A    between atoms: _437  and  _438
REMARK  171  A    between atoms: _440  and  _442
REMARK  172  A    between atoms: _442  and  _443
REMARK  173  A    between atoms: _442  and  _445
REMARK  174  A    between atoms: _445  and  _446
REMARK  175  A    between atoms: _451  and  _453
REMARK  176  A    between atoms: _453  and  _454
REMARK  177  A    between atoms: _457  and  _458
REMARK  178  A    between atoms: _463  and  _465
REMARK  179  A    between atoms: _465  and  _466
REMARK  180  A    between atoms: _465  and  _468
REMARK  181  A    between atoms: _468  and  _469
REMARK  182  A    between atoms: _479  and  _481
REMARK  183  A    between atoms: _481  and  _482
REMARK  184  A    between atoms: _486  and  _487
REMARK  185  A    between atoms: _492  and  _494
REMARK  186  A    between atoms: _494  and  _495
REMARK  187  A    between atoms: _494  and  _497
REMARK  188  A    between atoms: _497  and  _498
REMARK  189  A    between atoms: _498  and  _499
REMARK  190  A    between atoms: _504  and  _506
REMARK  191  A    between atoms: _506  and  _507
REMARK  192  A    between atoms: _509  and  _511
REMARK  193  A    between atoms: _511  and  _512
REMARK  194  A    between atoms: _514  and  _516
REMARK  195  A    between atoms: _516  and  _517
REMARK  196  A    between atoms: _516  and  _519
REMARK  197  A    between atoms: _519  and  _520
REMARK  198  A    between atoms: _530  and  _532
REMARK  199  A    between atoms: _532  and  _533
REMARK  200  A    between atoms: _532  and  _535
REMARK  201  A    between atoms: _535  and  _536
REMARK  202  A    between atoms: _539  and  _541
REMARK  203  A    between atoms: _541  and  _542
REMARK  204  A    between atoms: _541  and  _544
REMARK  205  A    between atoms: _544  and  _545
REMARK  206  A    between atoms: _548  and  _550
REMARK  207  A    between atoms: _550  and  _551
REMARK  208  A    between atoms: _550  and  _553
REMARK  209  A    between atoms: _553  and  _554
REMARK  210  A    between atoms: _554  and  _555
REMARK  211  A    between atoms: _555  and  _556
REMARK  212  A    between atoms: _565  and  _567
REMARK  213  A    between atoms: _567  and  _568
REMARK  214  A    between atoms: _567  and  _570
REMARK  215  A    between atoms: _570  and  _571
REMARK  216  A    between atoms: _581  and  _583
REMARK  217  A    between atoms: _583  and  _584
REMARK  218  A    between atoms: _586  and  _588
REMARK  219  A    between atoms: _588  and  _589
REMARK  220  A    between atoms: _588  and  _591
REMARK  221  A    between atoms: _591  and  _592
REMARK  222  A    between atoms: _597  and  _599
REMARK  223  A    between atoms: _599  and  _600
REMARK  224  A    between atoms: _603  and  _605
REMARK  225  A    between atoms: _605  and  _606
REMARK  226  A    between atoms: _605  and  _608
REMARK  227  A    between atoms: _608  and  _609
REMARK  228  A    between atoms: _612  and  _614
REMARK  229  A    between atoms: _614  and  _615
REMARK  230  A    between atoms: _614  and  _617
REMARK  231  A    between atoms: _617  and  _618
REMARK  232  A    between atoms: _624  and  _626
REMARK  233  A    between atoms: _626  and  _627
REMARK  234  A    between atoms: _626  and  _629
REMARK  235  A    between atoms: _629  and  _630
REMARK  236  A    between atoms: _630  and  _631
REMARK  237  A    between atoms: _635  and  _636
REMARK  238  A    between atoms: _641  and  _643
REMARK  239  A    between atoms: _643  and  _644
REMARK  240  A    between atoms: _643  and  _646
REMARK  241  A    between atoms: _646  and  _647
REMARK  242  A    between atoms: _647  and  _648
REMARK  243  A    between atoms: _648  and  _649
REMARK                            x       y       z     vdW  Elec       q    Type
REMARK                         _______ _______ _______ _____ _____    ______ ____
ROOT
ATOM      1  CA  LEU A   1       2.397   5.799  18.514  0.00  0.00    +0.133 C 
ENDROOT
BRANCH   1   2
ATOM      2  N   LEU A   1       2.144   7.063  17.785  0.00  0.00    -0.239 NA
ATOM      3  H   LEU A   1       2.365   7.127  16.771  0.00  0.00    +0.142 HD
ENDBRANCH   1   2
BRANCH   1   4
ATOM      4  C   LEU A   1       3.676   5.931  19.325  0.00  0.00    +0.224 C 
ATOM      5  O   LEU A   1       4.602   6.656  18.935  0.00  0.00    -0.287 OA
ENDBRANCH   1   4
BRANCH   1   6
ATOM      6  CB  LEU A   1       2.514   4.611  17.544  0.00  0.00    +0.025 C 
BRANCH   6   7
ATOM      7  CG  LEU A   1       1.359   4.345  16.578  0.00  0.00    +0.002 C 
ATOM      8  CD2 LEU A   1      -0.013   4.260  17.296  0.00  0.00    +0.000 C 
ATOM      9  CD1 LEU A   1       1.639   3.051  15.790  0.00  0.00    +0.000 C 
ENDBRANCH   6   7
ENDBRANCH   1   6
TORSDOF 4
REMARK  Name = ../refined-set-2016/3k02/3k02_pocket.pdb
REMARK  243 active torsions:
REMARK  status: ('A' for Active; 'I' for Inactive)
REMARK    1  A    between atoms: _1  and  _3
REMARK    2  A    between atoms: _3  and  _4
REMARK    3  A    between atoms: _3  and  _6
REMARK    4  A    between atoms: _6  and  _7
REMARK    5  A    between atoms: _10  and  _12
REMARK    6  A    between atoms: _12  and  _13
REMARK    7  A    between atoms: _12  and  _15
REMARK    8  A    between atoms: _15  and  _16
REMARK    9  A    between atoms: _19  and  _21
REMARK   10  A    between atoms: _21  and  _22
REMARK   11  A    between atoms: _21  and  _24
REMARK   12  A    between atoms: _24  and  _25
REMARK   13  A    between atoms: _27  and  _29
REMARK   14  A    between atoms: _29  and  _30
REMARK   15  A    between atoms: _29  and  _32
REMARK   16  A    between atoms: _32  and  _33
REMARK   17  A    between atoms: _38  and  _40
REMARK   18  A    between atoms: _40  and  _41
REMARK   19  A    between atoms: _40  and  _43
REMARK   20  A    between atoms: _43  and  _44
REMARK   21  A    between atoms: _44  and  _45
REMARK   22  A    between atoms: _48  and  _50
REMARK   23  A    between atoms: _50  and  _51
REMARK   24  A    between atoms: _54  and  _56
REMARK   25  A    between atoms: _56  and  _57
REMARK   26  A    between atoms: _56  and  _59
REMARK   27  A    between atoms: _59  and  _60
REMARK   28  A    between atoms: _60  and  _61
REMARK   29  A    between atoms: _64  and  _66
REMARK   30  A    between atoms: _66  and  _67
REMARK   31  A    between atoms: _66  and  _69
REMARK   32  A    between atoms: _69  and  _70
REMARK   33  A    between atoms: _70  and  _71
REMARK   34  A    between atoms: _71  and  _72
REMARK   35  A    between atoms: _72  and  _73
REMARK   36  A    between atoms: _77  and  _79
REMARK   37  A    between atoms: _79  and  _80
REMARK   38  A    between atoms: _79  and  _82
REMARK   39  A    between atoms: _82  and  _83
REMARK   40  A    between atoms: _88  and  _89
REMARK   41  A    between atoms: _91  and  _93
REMARK   42  A    between atoms: _93  and  _94
REMARK   43  A    between atoms: _93  and  _96
REMARK   44  A    between atoms: _96  and  _97
REMARK   45  A    between atoms: _102  and  _104
REMARK   46  A    between atoms: _104  and  _105
REMARK   47  A    between atoms: _104  and  _107
REMARK   48  A    between atoms: _111  and  _112
REMARK   49  A    between atoms: _117  and  _119
REMARK   50  A    between atoms: _119  and  _120
REMARK   51  A    between atoms: _119  and  _122
REMARK   52  A    between atoms: _122  and  _123
REMARK   53  A    between atoms: _129  and  _131
REMARK   54  A    between atoms: _131  and  _132
REMARK   55  A    between atoms: _134  and  _136
REMARK   56  A    between atoms: _136  and  _137
REMARK   57  A    between atoms: _136  and  _139
REMARK   58  A    between atoms: _139  and  _140
REMARK   59  A    between atoms: _140  and  _141
REMARK   60  A    between atoms: _144  and  _146
REMARK   61  A    between atoms: _146  and  _147
REMARK   62  A    between atoms: _150  and  _152
REMARK   63  A    between atoms: _152  and  _153
REMARK   64  A    between atoms: _152  and  _155
REMARK   65  A    between atoms: _155  and  _156
REMARK   66  A    between atoms: _161  and  _163
REMARK   67  A    between atoms: _163  and  _164
REMARK   68  A    between atoms: _167  and  _169
REMARK   69  A    between atoms: _169  and  _170
REMARK   70  A    between atoms: _169  and  _172
REMARK   71  A    between atoms: _172  and  _173
REMARK   72  A    between atoms: _173  and  _174
REMARK   73  A    between atoms: _174  and  _175
REMARK   74  A    between atoms: _175  and  _176
REMARK   75  A    between atoms: _180  and  _182
REMARK   76  A    between atoms: _182  and  _183
REMARK   77  A    between atoms: _182  and  _185
REMARK   78  A    between atoms: _185  and  _186
REMARK   79  A    between atoms: _186  and  _187
REMARK   80  A    between atoms: _187  and  _188
REMARK   81  A    between atoms: _197  and  _199
REMARK   82  A    between atoms: _199  and  _200
REMARK   83  A    between atoms: _199  and  _202
REMARK   84  A    between atoms: _202  and  _203
REMARK   85  A    between atoms: _203  and  _204
REMARK   86  A    between atoms: _207  and  _209
REMARK   87  A    between atoms: _209  and  _210
REMARK   88  A    between atoms: _209  and  _212
REMARK   89  A    between atoms: _215  and  _217
REMARK   90  A    between atoms: _217  and  _218
REMARK   91  A    between atoms: _221  and  _223
REMARK   92  A    between atoms: _223  and  _224
REMARK   93  A    between atoms: _223  and  _226
REMARK   94  A    between atoms: _226  and  _227
REMARK   95  A    between atoms: _237  and  _239
REMARK   96  A    between atoms: _239  and  _240
REMARK   97  A    between atoms: _239  and  _242
REMARK   98  A    between atoms: _245  and  _247
REMARK   99  A    between atoms: _247  and  _248
REMARK  100  A    between atoms: _247  and  _250
REMARK  101  A    between atoms: _250  and  _251
REMARK  102  A    between atoms: _254  and  _256
REMARK  103  A    between atoms: _256  and  _257
REMARK  104  A    between atoms: _256  and  _259
REMARK  105  A    between atoms: _259  and  _260
REMARK  106  A    between atoms: _266  and  _268
REMARK  107  A    between atoms: _268  and  _269
REMARK  108  A    between atoms: _268  and  _271
REMARK  109  A    between atoms: _271  and  _272
REMARK  110  A    between atoms: _272  and  _273
REMARK  111  A    between atoms: _278  and  _280
REMARK  112  A    between atoms: _280  and  _281
REMARK  113  A    between atoms: _280  and  _283
REMARK  114  A    between atoms: _286  and  _288
REMARK  115  A    between atoms: _288  and  _289
REMARK  116  A    between atoms: _288  and  _291
REMARK  117  A    between atoms: _291  and  _292
REMARK  118  A    between atoms: _295  and  _297
REMARK  119  A    between atoms: _297  and  _298
REMARK  120  A    between atoms: _297  and  _300
REMARK  121  A    between atoms: _300  and  _301
REMARK  122  A    between atoms: _304  and  _306
REMARK  123  A    between atoms: _306  and  _307
REMARK  124  A    between atoms: _306  and  _309
REMARK  125  A    between atoms: _309  and  _310
REMARK  126  A    between atoms: _313  and  _315
REMARK  127  A    between atoms: _315  and  _316
REMARK  128  A    between atoms: _315  and  _318
REMARK  129  A    between atoms: _318  and  _319
REMARK  130  A    between atoms: _322  and  _324
REMARK  131  A    between atoms: _324  and  _325
REMARK  132  A    between atoms: _324  and  _327
REMARK  133  A    between atoms: _327  and  _328
REMARK  134  A    between atoms: _328  and  _329
REMARK  135  A    between atoms: _329  and  _330
REMARK  136  A    between atoms: _339  and  _341
REMARK  137  A    between atoms: _341  and  _342
REMARK  138  A    between atoms: _341  and  _344
REMARK  139  A    between atoms: _344  and  _345
REMARK  140  A    between atoms: _348  and  _350
REMARK  141  A    between atoms: _350  and  _351
REMARK  142  A    between atoms: _350  and  _353
REMARK  143  A    between atoms: _353  and  _354
REMARK  144  A    between atoms: _358  and  _359
REMARK  145  A    between atoms: _364  and  _366
REMARK  146  A    between atoms: _366  and  _367
REMARK  147  A    between atoms: _366  and  _369
REMARK  148  A    between atoms: _369  and  _370
REMARK  149  A    between atoms: _375  and  _376
REMARK  150  A    between atoms: _378  and  _380
REMARK  151  A    between atoms: _380  and  _381
REMARK  152  A    between atoms: _380  and  _383
REMARK  153  A    between atoms: _383  and  _384
REMARK  154  A    between atoms: _394  and  _396
REMARK  155  A    between atoms: _396  and  _397
REMARK  156  A    between atoms: _396  and  _399
REMARK  157  A    between atoms: _399  and  _400
REMARK  158  A    between atoms: _406  and  _408
REMARK  159  A    between atoms: _408  and  _409
REMARK  160  A    between atoms: _408  and  _411
REMARK  161  A    between atoms: _411  and  _412
REMARK  162  A    between atoms: _415  and  _417
REMARK  163  A    between atoms: _417  and  _418
REMARK  164  A    between atoms: _417  and  _420
REMARK  165  A    between atoms: _420  and  _421
REMARK  166  A    between atoms: _431  and  _433
REMARK  167  A    between atoms: _433  and  _434
REMARK  168  A    between atoms: _433  and  _436
REMARK  169  A    between atoms: _436  and  _437
REMARK  170  A    between atoms: _437  and  _438
REMARK  171  A    between atoms: _440  and  _442
REMARK  172  A    between atoms: _442  and  _443
REMARK  173  A    between atoms: _442  and  _445
REMARK  174  A    between atoms: _445  and  _446
REMARK  175  A    between atoms: _451  and  _453
REMARK  176  A    between atoms: _453  and  _454
REMARK  177  A    between atoms: _457  and  _458
REMARK  178  A    between atoms: _463  and  _465
REMARK  179  A    between atoms: _465  and  _466
REMARK  180  A    between atoms: _465  and  _468
REMARK  181  A    between atoms: _468  and  _469
REMARK  182  A    between atoms: _479  and  _481
REMARK  183  A    between atoms: _481  and  _482
REMARK  184  A    between atoms: _486  and  _487
REMARK  185  A    between atoms: _492  and  _494
REMARK  186  A    between atoms: _494  and  _495
REMARK  187  A    between atoms: _494  and  _497
REMARK  188  A    between atoms: _497  and  _498
REMARK  189  A    between atoms: _498  and  _499
REMARK  190  A    between atoms: _504  and  _506
REMARK  191  A    between atoms: _506  and  _507
REMARK  192  A    between atoms: _509  and  _511
REMARK  193  A    between atoms: _511  and  _512
REMARK  194  A    between atoms: _514  and  _516
REMARK  195  A    between atoms: _516  and  _517
REMARK  196  A    between atoms: _516  and  _519
REMARK  197  A    between atoms: _519  and  _520
REMARK  198  A    between atoms: _530  and  _532
REMARK  199  A    between atoms: _532  and  _533
REMARK  200  A    between atoms: _532  and  _535
REMARK  201  A    between atoms: _535  and  _536
REMARK  202  A    between atoms: _539  and  _541
REMARK  203  A    between atoms: _541  and  _542
REMARK  204  A    between atoms: _541  and  _544
REMARK  205  A    between atoms: _544  and  _545
REMARK  206  A    between atoms: _548  and  _550
REMARK  207  A    between atoms: _550  and  _551
REMARK  208  A    between atoms: _550  and  _553
REMARK  209  A    between atoms: _553  and  _554
REMARK  210  A    between atoms: _554  and  _555
REMARK  211  A    between atoms: _555  and  _556
REMARK  212  A    between atoms: _565  and  _567
REMARK  213  A    between atoms: _567  and  _568
REMARK  214  A    between atoms: _567  and  _570
REMARK  215  A    between atoms: _570  and  _571
REMARK  216  A    between atoms: _581  and  _583
REMARK  217  A    between atoms: _583  and  _584
REMARK  218  A    between atoms: _586  and  _588
REMARK  219  A    between atoms: _588  and  _589
REMARK  220  A    between atoms: _588  and  _591
REMARK  221  A    between atoms: _591  and  _592
REMARK  222  A    between atoms: _597  and  _599
REMARK  223  A    between atoms: _599  and  _600
REMARK  224  A    between atoms: _603  and  _605
REMARK  225  A    between atoms: _605  and  _606
REMARK  226  A    between atoms: _605  and  _608
REMARK  227  A    between atoms: _608  and  _609
REMARK  228  A    between atoms: _612  and  _614
REMARK  229  A    between atoms: _614  and  _615
REMARK  230  A    between atoms: _614  and  _617
REMARK  231  A    between atoms: _617  and  _618
REMARK  232  A    between atoms: _624  and  _626
REMARK  233  A    between atoms: _626  and  _627
REMARK  234  A    between atoms: _626  and  _629
REMARK  235  A    between atoms: _629  and  _630
REMARK  236  A    between atoms: _630  and  _631
REMARK  237  A    between atoms: _635  and  _636
REMARK  238  A    between atoms: _641  and  _643
REMARK  239  A    between atoms: _643  and  _644
REMARK  240  A    between atoms: _643  and  _646
REMARK  241  A    between atoms: _646  and  _647
REMARK  242  A    between atoms: _647  and  _648
REMARK  243  A    between atoms: _648  and  _649
REMARK                            x       y       z     vdW  Elec       q    Type
REMARK                         _______ _______ _______ _____ _____    ______ ____
ROOT
ATOM      1  NE  ARG A   1      -0.155  -8.656  28.576  0.00  0.00    -0.265 N 
ATOM      2  HE  ARG A   1       0.232  -7.855  29.115  0.00  0.00    +0.259 HD
ATOM      3  CZ  ARG A   1      -0.914  -8.391  27.524  0.00  0.00    +0.342 C 
ATOM      4  NH2 ARG A   1      -1.134  -7.120  27.170  0.00  0.00    -0.292 N 
ATOM      5 HH21 ARG A   1      -0.710  -6.346  27.720  0.00  0.00    +0.255 HD
ATOM      6 HH22 ARG A   1      -1.729  -6.906  26.345  0.00  0.00    +0.255 HD
ATOM      7  NH1 ARG A   1      -1.418  -9.383  26.807  0.00  0.00    -0.292 N 
ATOM      8 HH11 ARG A   1      -1.218 -10.369  27.070  0.00  0.00    +0.255 HD
ATOM      9 HH12 ARG A   1      -2.014  -9.176  25.980  0.00  0.00    +0.255 HD
ENDROOT
BRANCH   1  10
ATOM     10  CD  ARG A   1       0.171 -10.012  29.025  0.00  0.00    +0.174 C 
BRANCH  10  11
ATOM     11  CG  ARG A   1       1.161  -9.988  30.153  0.00  0.00    +0.045 C 
BRANCH  11  12
ATOM     12  CB  ARG A   1       0.466  -9.746  31.484  0.00  0.00    +0.029 C 
BRANCH  12  13
ATOM     13  CA  ARG A   1       1.425  -9.532  32.658  0.00  0.00    +0.133 C 
BRANCH  13  14
ATOM     14  N   ARG A   1       2.034  -8.216  32.565  0.00  0.00    -0.239 NA
ATOM     15  H   ARG A   1       2.598  -8.000  31.718  0.00  0.00    +0.142 HD
ENDBRANCH  13  14
BRANCH  13  16
ATOM     16  C   ARG A   1       2.530 -10.578  32.590  0.00  0.00    +0.224 C 
ATOM     17  O   ARG A   1       3.661 -10.246  32.190  0.00  0.00    -0.287 OA
ENDBRANCH  13  16
ENDBRANCH  12  13
ENDBRANCH  11  12
ENDBRANCH  10  11
ENDBRANCH   1  10
TORSDOF 6
REMARK  Name = ../refined-set-2016/3k02/3k02_pocket.pdb
REMARK  243 active torsions:
REMARK  status: ('A' for Active; 'I' for Inactive)
REMARK    1  A    between atoms: _1  and  _3
REMARK    2  A    between atoms: _3  and  _4
REMARK    3  A    between atoms: _3  and  _6
REMARK    4  A    between atoms: _6  and  _7
REMARK    5  A    between atoms: _10  and  _12
REMARK    6  A    between atoms: _12  and  _13
REMARK    7  A    between atoms: _12  and  _15
REMARK    8  A    between atoms: _15  and  _16
REMARK    9  A    between atoms: _19  and  _21
REMARK   10  A    between atoms: _21  and  _22
REMARK   11  A    between atoms: _21  and  _24
REMARK   12  A    between atoms: _24  and  _25
REMARK   13  A    between atoms: _27  and  _29
REMARK   14  A    between atoms: _29  and  _30
REMARK   15  A    between atoms: _29  and  _32
REMARK   16  A    between atoms: _32  and  _33
REMARK   17  A    between atoms: _38  and  _40
REMARK   18  A    between atoms: _40  and  _41
REMARK   19  A    between atoms: _40  and  _43
REMARK   20  A    between atoms: _43  and  _44
REMARK   21  A    between atoms: _44  and  _45
REMARK   22  A    between atoms: _48  and  _50
REMARK   23  A    between atoms: _50  and  _51
REMARK   24  A    between atoms: _54  and  _56
REMARK   25  A    between atoms: _56  and  _57
REMARK   26  A    between atoms: _56  and  _59
REMARK   27  A    between atoms: _59  and  _60
REMARK   28  A    between atoms: _60  and  _61
REMARK   29  A    between atoms: _64  and  _66
REMARK   30  A    between atoms: _66  and  _67
REMARK   31  A    between atoms: _66  and  _69
REMARK   32  A    between atoms: _69  and  _70
REMARK   33  A    between atoms: _70  and  _71
REMARK   34  A    between atoms: _71  and  _72
REMARK   35  A    between atoms: _72  and  _73
REMARK   36  A    between atoms: _77  and  _79
REMARK   37  A    between atoms: _79  and  _80
REMARK   38  A    between atoms: _79  and  _82
REMARK   39  A    between atoms: _82  and  _83
REMARK   40  A    between atoms: _88  and  _89
REMARK   41  A    between atoms: _91  and  _93
REMARK   42  A    between atoms: _93  and  _94
REMARK   43  A    between atoms: _93  and  _96
REMARK   44  A    between atoms: _96  and  _97
REMARK   45  A    between atoms: _102  and  _104
REMARK   46  A    between atoms: _104  and  _105
REMARK   47  A    between atoms: _104  and  _107
REMARK   48  A    between atoms: _111  and  _112
REMARK   49  A    between atoms: _117  and  _119
REMARK   50  A    between atoms: _119  and  _120
REMARK   51  A    between atoms: _119  and  _122
REMARK   52  A    between atoms: _122  and  _123
REMARK   53  A    between atoms: _129  and  _131
REMARK   54  A    between atoms: _131  and  _132
REMARK   55  A    between atoms: _134  and  _136
REMARK   56  A    between atoms: _136  and  _137
REMARK   57  A    between atoms: _136  and  _139
REMARK   58  A    between atoms: _139  and  _140
REMARK   59  A    between atoms: _140  and  _141
REMARK   60  A    between atoms: _144  and  _146
REMARK   61  A    between atoms: _146  and  _147
REMARK   62  A    between atoms: _150  and  _152
REMARK   63  A    between atoms: _152  and  _153
REMARK   64  A    between atoms: _152  and  _155
REMARK   65  A    between atoms: _155  and  _156
REMARK   66  A    between atoms: _161  and  _163
REMARK   67  A    between atoms: _163  and  _164
REMARK   68  A    between atoms: _167  and  _169
REMARK   69  A    between atoms: _169  and  _170
REMARK   70  A    between atoms: _169  and  _172
REMARK   71  A    between atoms: _172  and  _173
REMARK   72  A    between atoms: _173  and  _174
REMARK   73  A    between atoms: _174  and  _175
REMARK   74  A    between atoms: _175  and  _176
REMARK   75  A    between atoms: _180  and  _182
REMARK   76  A    between atoms: _182  and  _183
REMARK   77  A    between atoms: _182  and  _185
REMARK   78  A    between atoms: _185  and  _186
REMARK   79  A    between atoms: _186  and  _187
REMARK   80  A    between atoms: _187  and  _188
REMARK   81  A    between atoms: _197  and  _199
REMARK   82  A    between atoms: _199  and  _200
REMARK   83  A    between atoms: _199  and  _202
REMARK   84  A    between atoms: _202  and  _203
REMARK   85  A    between atoms: _203  and  _204
REMARK   86  A    between atoms: _207  and  _209
REMARK   87  A    between atoms: _209  and  _210
REMARK   88  A    between atoms: _209  and  _212
REMARK   89  A    between atoms: _215  and  _217
REMARK   90  A    between atoms: _217  and  _218
REMARK   91  A    between atoms: _221  and  _223
REMARK   92  A    between atoms: _223  and  _224
REMARK   93  A    between atoms: _223  and  _226
REMARK   94  A    between atoms: _226  and  _227
REMARK   95  A    between atoms: _237  and  _239
REMARK   96  A    between atoms: _239  and  _240
REMARK   97  A    between atoms: _239  and  _242
REMARK   98  A    between atoms: _245  and  _247
REMARK   99  A    between atoms: _247  and  _248
REMARK  100  A    between atoms: _247  and  _250
REMARK  101  A    between atoms: _250  and  _251
REMARK  102  A    between atoms: _254  and  _256
REMARK  103  A    between atoms: _256  and  _257
REMARK  104  A    between atoms: _256  and  _259
REMARK  105  A    between atoms: _259  and  _260
REMARK  106  A    between atoms: _266  and  _268
REMARK  107  A    between atoms: _268  and  _269
REMARK  108  A    between atoms: _268  and  _271
REMARK  109  A    between atoms: _271  and  _272
REMARK  110  A    between atoms: _272  and  _273
REMARK  111  A    between atoms: _278  and  _280
REMARK  112  A    between atoms: _280  and  _281
REMARK  113  A    between atoms: _280  and  _283
REMARK  114  A    between atoms: _286  and  _288
REMARK  115  A    between atoms: _288  and  _289
REMARK  116  A    between atoms: _288  and  _291
REMARK  117  A    between atoms: _291  and  _292
REMARK  118  A    between atoms: _295  and  _297
REMARK  119  A    between atoms: _297  and  _298
REMARK  120  A    between atoms: _297  and  _300
REMARK  121  A    between atoms: _300  and  _301
REMARK  122  A    between atoms: _304  and  _306
REMARK  123  A    between atoms: _306  and  _307
REMARK  124  A    between atoms: _306  and  _309
REMARK  125  A    between atoms: _309  and  _310
REMARK  126  A    between atoms: _313  and  _315
REMARK  127  A    between atoms: _315  and  _316
REMARK  128  A    between atoms: _315  and  _318
REMARK  129  A    between atoms: _318  and  _319
REMARK  130  A    between atoms: _322  and  _324
REMARK  131  A    between atoms: _324  and  _325
REMARK  132  A    between atoms: _324  and  _327
REMARK  133  A    between atoms: _327  and  _328
REMARK  134  A    between atoms: _328  and  _329
REMARK  135  A    between atoms: _329  and  _330
REMARK  136  A    between atoms: _339  and  _341
REMARK  137  A    between atoms: _341  and  _342
REMARK  138  A    between atoms: _341  and  _344
REMARK  139  A    between atoms: _344  and  _345
REMARK  140  A    between atoms: _348  and  _350
REMARK  141  A    between atoms: _350  and  _351
REMARK  142  A    between atoms: _350  and  _353
REMARK  143  A    between atoms: _353  and  _354
REMARK  144  A    between atoms: _358  and  _359
REMARK  145  A    between atoms: _364  and  _366
REMARK  146  A    between atoms: _366  and  _367
REMARK  147  A    between atoms: _366  and  _369
REMARK  148  A    between atoms: _369  and  _370
REMARK  149  A    between atoms: _375  and  _376
REMARK  150  A    between atoms: _378  and  _380
REMARK  151  A    between atoms: _380  and  _381
REMARK  152  A    between atoms: _380  and  _383
REMARK  153  A    between atoms: _383  and  _384
REMARK  154  A    between atoms: _394  and  _396
REMARK  155  A    between atoms: _396  and  _397
REMARK  156  A    between atoms: _396  and  _399
REMARK  157  A    between atoms: _399  and  _400
REMARK  158  A    between atoms: _406  and  _408
REMARK  159  A    between atoms: _408  and  _409
REMARK  160  A    between atoms: _408  and  _411
REMARK  161  A    between atoms: _411  and  _412
REMARK  162  A    between atoms: _415  and  _417
REMARK  163  A    between atoms: _417  and  _418
REMARK  164  A    between atoms: _417  and  _420
REMARK  165  A    between atoms: _420  and  _421
REMARK  166  A    between atoms: _431  and  _433
REMARK  167  A    between atoms: _433  and  _434
REMARK  168  A    between atoms: _433  and  _436
REMARK  169  A    between atoms: _436  and  _437
REMARK  170  A    between atoms: _437  and  _438
REMARK  171  A    between atoms: _440  and  _442
REMARK  172  A    between atoms: _442  and  _443
REMARK  173  A    between atoms: _442  and  _445
REMARK  174  A    between atoms: _445  and  _446
REMARK  175  A    between atoms: _451  and  _453
REMARK  176  A    between atoms: _453  and  _454
REMARK  177  A    between atoms: _457  and  _458
REMARK  178  A    between atoms: _463  and  _465
REMARK  179  A    between atoms: _465  and  _466
REMARK  180  A    between atoms: _465  and  _468
REMARK  181  A    between atoms: _468  and  _469
REMARK  182  A    between atoms: _479  and  _481
REMARK  183  A    between atoms: _481  and  _482
REMARK  184  A    between atoms: _486  and  _487
REMARK  185  A    between atoms: _492  and  _494
REMARK  186  A    between atoms: _494  and  _495
REMARK  187  A    between atoms: _494  and  _497
REMARK  188  A    between atoms: _497  and  _498
REMARK  189  A    between atoms: _498  and  _499
REMARK  190  A    between atoms: _504  and  _506
REMARK  191  A    between atoms: _506  and  _507
REMARK  192  A    between atoms: _509  and  _511
REMARK  193  A    between atoms: _511  and  _512
REMARK  194  A    between atoms: _514  and  _516
REMARK  195  A    between atoms: _516  and  _517
REMARK  196  A    between atoms: _516  and  _519
REMARK  197  A    between atoms: _519  and  _520
REMARK  198  A    between atoms: _530  and  _532
REMARK  199  A    between atoms: _532  and  _533
REMARK  200  A    between atoms: _532  and  _535
REMARK  201  A    between atoms: _535  and  _536
REMARK  202  A    between atoms: _539  and  _541
REMARK  203  A    between atoms: _541  and  _542
REMARK  204  A    between atoms: _541  and  _544
REMARK  205  A    between atoms: _544  and  _545
REMARK  206  A    between atoms: _548  and  _550
REMARK  207  A    between atoms: _550  and  _551
REMARK  208  A    between atoms: _550  and  _553
REMARK  209  A    between atoms: _553  and  _554
REMARK  210  A    between atoms: _554  and  _555
REMARK  211  A    between atoms: _555  and  _556
REMARK  212  A    between atoms: _565  and  _567
REMARK  213  A    between atoms: _567  and  _568
REMARK  214  A    between atoms: _567  and  _570
REMARK  215  A    between atoms: _570  and  _571
REMARK  216  A    between atoms: _581  and  _583
REMARK  217  A    between atoms: _583  and  _584
REMARK  218  A    between atoms: _586  and  _588
REMARK  219  A    between atoms: _588  and  _589
REMARK  220  A    between atoms: _588  and  _591
REMARK  221  A    between atoms: _591  and  _592
REMARK  222  A    between atoms: _597  and  _599
REMARK  223  A    between atoms: _599  and  _600
REMARK  224  A    between atoms: _603  and  _605
REMARK  225  A    between atoms: _605  and  _606
REMARK  226  A    between atoms: _605  and  _608
REMARK  227  A    between atoms: _608  and  _609
REMARK  228  A    between atoms: _612  and  _614
REMARK  229  A    between atoms: _614  and  _615
REMARK  230  A    between atoms: _614  and  _617
REMARK  231  A    between atoms: _617  and  _618
REMARK  232  A    between atoms: _624  and  _626
REMARK  233  A    between atoms: _626  and  _627
REMARK  234  A    between atoms: _626  and  _629
REMARK  235  A    between atoms: _629  and  _630
REMARK  236  A    between atoms: _630  and  _631
REMARK  237  A    between atoms: _635  and  _636
REMARK  238  A    between atoms: _641  and  _643
REMARK  239  A    between atoms: _643  and  _644
REMARK  240  A    between atoms: _643  and  _646
REMARK  241  A    between atoms: _646  and  _647
REMARK  242  A    between atoms: _647  and  _648
REMARK  243  A    between atoms: _648  and  _649
REMARK                            x       y       z     vdW  Elec       q    Type
REMARK                         _______ _______ _______ _____ _____    ______ ____
ROOT
ATOM      1  CG  TRP A   1       5.986 -10.995  29.217  0.00  0.00    -0.002 A 
ATOM      2  CD1 TRP A   1       6.660 -10.197  30.094  0.00  0.00    +0.068 A 
ATOM      3  NE1 TRP A   1       6.175  -8.911  30.033  0.00  0.00    -0.352 N 
ATOM      4  HE1 TRP A   1       6.523  -8.107  30.593  0.00  0.00    +0.166 HD
ATOM      5  CE2 TRP A   1       5.158  -8.860  29.114  0.00  0.00    +0.056 A 
ATOM      6  CZ2 TRP A   1       4.352  -7.773  28.704  0.00  0.00    +0.017 A 
ATOM      7  CH2 TRP A   1       3.387  -8.021  27.753  0.00  0.00    +0.001 A 
ATOM      8  CZ3 TRP A   1       3.219  -9.311  27.198  0.00  0.00    +0.000 A 
ATOM      9  CE3 TRP A   1       4.025 -10.383  27.605  0.00  0.00    +0.001 A 
ATOM     10  CD2 TRP A   1       5.006 -10.159  28.583  0.00  0.00    +0.013 A 
ENDROOT
BRANCH   1  11
ATOM     11  CB  TRP A   1       6.205 -12.467  28.981  0.00  0.00    +0.053 C 
BRANCH  11  12
ATOM     12  CA  TRP A   1       4.996 -13.313  29.410  0.00  0.00    +0.137 C 
BRANCH  12  13
ATOM     13  N   TRP A   1       4.662 -13.075  30.811  0.00  0.00    -0.239 NA
ATOM     14  H   TRP A   1       5.427 -12.885  31.490  0.00  0.00    +0.142 HD
ENDBRANCH  12  13
BRANCH  12  15
ATOM     15  C   TRP A   1       5.200 -14.801  29.171  0.00  0.00    +0.224 C 
ATOM     16  O   TRP A   1       6.307 -15.264  28.893  0.00  0.00    -0.287 OA
ENDBRANCH  12  15
ENDBRANCH  11  12
ENDBRANCH   1  11
TORSDOF 4
REMARK  Name = ../refined-set-2016/3k02/3k02_pocket.pdb
REMARK  243 active torsions:
REMARK  status: ('A' for Active; 'I' for Inactive)
REMARK    1  A    between atoms: _1  and  _3
REMARK    2  A    between atoms: _3  and  _4
REMARK    3  A    between atoms: _3  and  _6
REMARK    4  A    between atoms: _6  and  _7
REMARK    5  A    between atoms: _10  and  _12
REMARK    6  A    between atoms: _12  and  _13
REMARK    7  A    between atoms: _12  and  _15
REMARK    8  A    between atoms: _15  and  _16
REMARK    9  A    between atoms: _19  and  _21
REMARK   10  A    between atoms: _21  and  _22
REMARK   11  A    between atoms: _21  and  _24
REMARK   12  A    between atoms: _24  and  _25
REMARK   13  A    between atoms: _27  and  _29
REMARK   14  A    between atoms: _29  and  _30
REMARK   15  A    between atoms: _29  and  _32
REMARK   16  A    between atoms: _32  and  _33
REMARK   17  A    between atoms: _38  and  _40
REMARK   18  A    between atoms: _40  and  _41
REMARK   19  A    between atoms: _40  and  _43
REMARK   20  A    between atoms: _43  and  _44
REMARK   21  A    between atoms: _44  and  _45
REMARK   22  A    between atoms: _48  and  _50
REMARK   23  A    between atoms: _50  and  _51
REMARK   24  A    between atoms: _54  and  _56
REMARK   25  A    between atoms: _56  and  _57
REMARK   26  A    between atoms: _56  and  _59
REMARK   27  A    between atoms: _59  and  _60
REMARK   28  A    between atoms: _60  and  _61
REMARK   29  A    between atoms: _64  and  _66
REMARK   30  A    between atoms: _66  and  _67
REMARK   31  A    between atoms: _66  and  _69
REMARK   32  A    between atoms: _69  and  _70
REMARK   33  A    between atoms: _70  and  _71
REMARK   34  A    between atoms: _71  and  _72
REMARK   35  A    between atoms: _72  and  _73
REMARK   36  A    between atoms: _77  and  _79
REMARK   37  A    between atoms: _79  and  _80
REMARK   38  A    between atoms: _79  and  _82
REMARK   39  A    between atoms: _82  and  _83
REMARK   40  A    between atoms: _88  and  _89
REMARK   41  A    between atoms: _91  and  _93
REMARK   42  A    between atoms: _93  and  _94
REMARK   43  A    between atoms: _93  and  _96
REMARK   44  A    between atoms: _96  and  _97
REMARK   45  A    between atoms: _102  and  _104
REMARK   46  A    between atoms: _104  and  _105
REMARK   47  A    between atoms: _104  and  _107
REMARK   48  A    between atoms: _111  and  _112
REMARK   49  A    between atoms: _117  and  _119
REMARK   50  A    between atoms: _119  and  _120
REMARK   51  A    between atoms: _119  and  _122
REMARK   52  A    between atoms: _122  and  _123
REMARK   53  A    between atoms: _129  and  _131
REMARK   54  A    between atoms: _131  and  _132
REMARK   55  A    between atoms: _134  and  _136
REMARK   56  A    between atoms: _136  and  _137
REMARK   57  A    between atoms: _136  and  _139
REMARK   58  A    between atoms: _139  and  _140
REMARK   59  A    between atoms: _140  and  _141
REMARK   60  A    between atoms: _144  and  _146
REMARK   61  A    between atoms: _146  and  _147
REMARK   62  A    between atoms: _150  and  _152
REMARK   63  A    between atoms: _152  and  _153
REMARK   64  A    between atoms: _152  and  _155
REMARK   65  A    between atoms: _155  and  _156
REMARK   66  A    between atoms: _161  and  _163
REMARK   67  A    between atoms: _163  and  _164
REMARK   68  A    between atoms: _167  and  _169
REMARK   69  A    between atoms: _169  and  _170
REMARK   70  A    between atoms: _169  and  _172
REMARK   71  A    between atoms: _172  and  _173
REMARK   72  A    between atoms: _173  and  _174
REMARK   73  A    between atoms: _174  and  _175
REMARK   74  A    between atoms: _175  and  _176
REMARK   75  A    between atoms: _180  and  _182
REMARK   76  A    between atoms: _182  and  _183
REMARK   77  A    between atoms: _182  and  _185
REMARK   78  A    between atoms: _185  and  _186
REMARK   79  A    between atoms: _186  and  _187
REMARK   80  A    between atoms: _187  and  _188
REMARK   81  A    between atoms: _197  and  _199
REMARK   82  A    between atoms: _199  and  _200
REMARK   83  A    between atoms: _199  and  _202
REMARK   84  A    between atoms: _202  and  _203
REMARK   85  A    between atoms: _203  and  _204
REMARK   86  A    between atoms: _207  and  _209
REMARK   87  A    between atoms: _209  and  _210
REMARK   88  A    between atoms: _209  and  _212
REMARK   89  A    between atoms: _215  and  _217
REMARK   90  A    between atoms: _217  and  _218
REMARK   91  A    between atoms: _221  and  _223
REMARK   92  A    between atoms: _223  and  _224
REMARK   93  A    between atoms: _223  and  _226
REMARK   94  A    between atoms: _226  and  _227
REMARK   95  A    between atoms: _237  and  _239
REMARK   96  A    between atoms: _239  and  _240
REMARK   97  A    between atoms: _239  and  _242
REMARK   98  A    between atoms: _245  and  _247
REMARK   99  A    between atoms: _247  and  _248
REMARK  100  A    between atoms: _247  and  _250
REMARK  101  A    between atoms: _250  and  _251
REMARK  102  A    between atoms: _254  and  _256
REMARK  103  A    between atoms: _256  and  _257
REMARK  104  A    between atoms: _256  and  _259
REMARK  105  A    between atoms: _259  and  _260
REMARK  106  A    between atoms: _266  and  _268
REMARK  107  A    between atoms: _268  and  _269
REMARK  108  A    between atoms: _268  and  _271
REMARK  109  A    between atoms: _271  and  _272
REMARK  110  A    between atoms: _272  and  _273
REMARK  111  A    between atoms: _278  and  _280
REMARK  112  A    between atoms: _280  and  _281
REMARK  113  A    between atoms: _280  and  _283
REMARK  114  A    between atoms: _286  and  _288
REMARK  115  A    between atoms: _288  and  _289
REMARK  116  A    between atoms: _288  and  _291
REMARK  117  A    between atoms: _291  and  _292
REMARK  118  A    between atoms: _295  and  _297
REMARK  119  A    between atoms: _297  and  _298
REMARK  120  A    between atoms: _297  and  _300
REMARK  121  A    between atoms: _300  and  _301
REMARK  122  A    between atoms: _304  and  _306
REMARK  123  A    between atoms: _306  and  _307
REMARK  124  A    between atoms: _306  and  _309
REMARK  125  A    between atoms: _309  and  _310
REMARK  126  A    between atoms: _313  and  _315
REMARK  127  A    between atoms: _315  and  _316
REMARK  128  A    between atoms: _315  and  _318
REMARK  129  A    between atoms: _318  and  _319
REMARK  130  A    between atoms: _322  and  _324
REMARK  131  A    between atoms: _324  and  _325
REMARK  132  A    between atoms: _324  and  _327
REMARK  133  A    between atoms: _327  and  _328
REMARK  134  A    between atoms: _328  and  _329
REMARK  135  A    between atoms: _329  and  _330
REMARK  136  A    between atoms: _339  and  _341
REMARK  137  A    between atoms: _341  and  _342
REMARK  138  A    between atoms: _341  and  _344
REMARK  139  A    between atoms: _344  and  _345
REMARK  140  A    between atoms: _348  and  _350
REMARK  141  A    between atoms: _350  and  _351
REMARK  142  A    between atoms: _350  and  _353
REMARK  143  A    between atoms: _353  and  _354
REMARK  144  A    between atoms: _358  and  _359
REMARK  145  A    between atoms: _364  and  _366
REMARK  146  A    between atoms: _366  and  _367
REMARK  147  A    between atoms: _366  and  _369
REMARK  148  A    between atoms: _369  and  _370
REMARK  149  A    between atoms: _375  and  _376
REMARK  150  A    between atoms: _378  and  _380
REMARK  151  A    between atoms: _380  and  _381
REMARK  152  A    between atoms: _380  and  _383
REMARK  153  A    between atoms: _383  and  _384
REMARK  154  A    between atoms: _394  and  _396
REMARK  155  A    between atoms: _396  and  _397
REMARK  156  A    between atoms: _396  and  _399
REMARK  157  A    between atoms: _399  and  _400
REMARK  158  A    between atoms: _406  and  _408
REMARK  159  A    between atoms: _408  and  _409
REMARK  160  A    between atoms: _408  and  _411
REMARK  161  A    between atoms: _411  and  _412
REMARK  162  A    between atoms: _415  and  _417
REMARK  163  A    between atoms: _417  and  _418
REMARK  164  A    between atoms: _417  and  _420
REMARK  165  A    between atoms: _420  and  _421
REMARK  166  A    between atoms: _431  and  _433
REMARK  167  A    between atoms: _433  and  _434
REMARK  168  A    between atoms: _433  and  _436
REMARK  169  A    between atoms: _436  and  _437
REMARK  170  A    between atoms: _437  and  _438
REMARK  171  A    between atoms: _440  and  _442
REMARK  172  A    between atoms: _442  and  _443
REMARK  173  A    between atoms: _442  and  _445
REMARK  174  A    between atoms: _445  and  _446
REMARK  175  A    between atoms: _451  and  _453
REMARK  176  A    between atoms: _453  and  _454
REMARK  177  A    between atoms: _457  and  _458
REMARK  178  A    between atoms: _463  and  _465
REMARK  179  A    between atoms: _465  and  _466
REMARK  180  A    between atoms: _465  and  _468
REMARK  181  A    between atoms: _468  and  _469
REMARK  182  A    between atoms: _479  and  _481
REMARK  183  A    between atoms: _481  and  _482
REMARK  184  A    between atoms: _486  and  _487
REMARK  185  A    between atoms: _492  and  _494
REMARK  186  A    between atoms: _494  and  _495
REMARK  187  A    between atoms: _494  and  _497
REMARK  188  A    between atoms: _497  and  _498
REMARK  189  A    between atoms: _498  and  _499
REMARK  190  A    between atoms: _504  and  _506
REMARK  191  A    between atoms: _506  and  _507
REMARK  192  A    between atoms: _509  and  _511
REMARK  193  A    between atoms: _511  and  _512
REMARK  194  A    between atoms: _514  and  _516
REMARK  195  A    between atoms: _516  and  _517
REMARK  196  A    between atoms: _516  and  _519
REMARK  197  A    between atoms: _519  and  _520
REMARK  198  A    between atoms: _530  and  _532
REMARK  199  A    between atoms: _532  and  _533
REMARK  200  A    between atoms: _532  and  _535
REMARK  201  A    between atoms: _535  and  _536
REMARK  202  A    between atoms: _539  and  _541
REMARK  203  A    between atoms: _541  and  _542
REMARK  204  A    between atoms: _541  and  _544
REMARK  205  A    between atoms: _544  and  _545
REMARK  206  A    between atoms: _548  and  _550
REMARK  207  A    between atoms: _550  and  _551
REMARK  208  A    between atoms: _550  and  _553
REMARK  209  A    between atoms: _553  and  _554
REMARK  210  A    between atoms: _554  and  _555
REMARK  211  A    between atoms: _555  and  _556
REMARK  212  A    between atoms: _565  and  _567
REMARK  213  A    between atoms: _567  and  _568
REMARK  214  A    between atoms: _567  and  _570
REMARK  215  A    between atoms: _570  and  _571
REMARK  216  A    between atoms: _581  and  _583
REMARK  217  A    between atoms: _583  and  _584
REMARK  218  A    between atoms: _586  and  _588
REMARK  219  A    between atoms: _588  and  _589
REMARK  220  A    between atoms: _588  and  _591
REMARK  221  A    between atoms: _591  and  _592
REMARK  222  A    between atoms: _597  and  _599
REMARK  223  A    between atoms: _599  and  _600
REMARK  224  A    between atoms: _603  and  _605
REMARK  225  A    between atoms: _605  and  _606
REMARK  226  A    between atoms: _605  and  _608
REMARK  227  A    between atoms: _608  and  _609
REMARK  228  A    between atoms: _612  and  _614
REMARK  229  A    between atoms: _614  and  _615
REMARK  230  A    between atoms: _614  and  _617
REMARK  231  A    between atoms: _617  and  _618
REMARK  232  A    between atoms: _624  and  _626
REMARK  233  A    between atoms: _626  and  _627
REMARK  234  A    between atoms: _626  and  _629
REMARK  235  A    between atoms: _629  and  _630
REMARK  236  A    between atoms: _630  and  _631
REMARK  237  A    between atoms: _635  and  _636
REMARK  238  A    between atoms: _641  and  _643
REMARK  239  A    between atoms: _643  and  _644
REMARK  240  A    between atoms: _643  and  _646
REMARK  241  A    between atoms: _646  and  _647
REMARK  242  A    between atoms: _647  and  _648
REMARK  243  A    between atoms: _648  and  _649
REMARK                            x       y       z     vdW  Elec       q    Type
REMARK                         _______ _______ _______ _____ _____    ______ ____
ROOT
ATOM      1  C   LEU A   4      -7.337 -14.651  29.108  0.00  0.00    +0.241 C 
ATOM      2  O   LEU A   4      -8.187 -14.360  29.973  0.00  0.00    -0.273 OA
ATOM      3  N   PHE A   5      -7.392 -14.194  27.858  0.00  0.00    -0.297 N 
ATOM      4  H   PHE A   5      -6.715 -14.540  27.149  0.00  0.00    +0.150 HD
ENDROOT
BRANCH   3   5
ATOM      5  CA  PHE A   5      -8.403 -13.206  27.481  0.00  0.00    +0.153 C 
BRANCH   5   6
ATOM      6  C   PHE A   5      -9.757 -13.801  27.081  0.00  0.00    +0.241 C 
ATOM      7  O   PHE A   5     -10.808 -13.205  27.362  0.00  0.00    -0.273 OA
ATOM      8  N   GLU A   6      -9.750 -14.979  26.464  0.00  0.00    -0.297 N 
ATOM      9  H   GLU A   6      -8.856 -15.487  26.309  0.00  0.00    +0.150 HD
BRANCH   8  10
ATOM     10  CA  GLU A   6     -11.014 -15.550  26.007  0.00  0.00    +0.149 C 
BRANCH  10  11
ATOM     11  C   GLU A   6     -12.021 -15.760  27.171  0.00  0.00    +0.244 C 
ATOM     12  N   PRO A   7     -11.553 -16.289  28.313  0.00  0.00    -0.273 N 
ATOM     13  CA  PRO A   7     -12.506 -16.501  29.408  0.00  0.00    +0.140 C 
ATOM     14  CB  PRO A   7     -11.615 -17.036  30.524  0.00  0.00    +0.030 C 
ATOM     15  CG  PRO A   7     -10.564 -17.841  29.780  0.00  0.00    +0.024 C 
ATOM     16  CD  PRO A   7     -10.227 -16.829  28.683  0.00  0.00    +0.094 C 
ATOM     17  O   GLU A   6     -13.209 -15.448  27.001  0.00  0.00    -0.273 OA
BRANCH  13  18
ATOM     18  C   PRO A   7     -13.162 -15.190  29.823  0.00  0.00    +0.227 C 
ATOM     19  O   PRO A   7     -14.397 -15.116  30.049  0.00  0.00    -0.286 OA
ENDBRANCH  13  18
ENDBRANCH  10  11
BRANCH  10  20
ATOM     20  CB  GLU A   6     -10.810 -16.835  25.181  0.00  0.00    +0.041 C 
BRANCH  20  21
ATOM     21  CG  GLU A   6     -12.136 -17.483  24.771  0.00  0.00    +0.116 C 
BRANCH  21  22
ATOM     22  CD  GLU A   6     -12.819 -16.805  23.577  0.00  0.00    +0.365 C 
ATOM     23  OE2 GLU A   6     -12.526 -15.641  23.287  0.00  0.00    -0.246 OA
ATOM     24  OE1 GLU A   6     -13.640 -17.473  22.887  0.00  0.00    -0.246 OA
ENDBRANCH  21  22
ENDBRANCH  20  21
ENDBRANCH  10  20
ENDBRANCH   8  10
ENDBRANCH   5   6
BRANCH   5  25
ATOM     25  CB  PHE A   5      -7.853 -12.204  26.440  0.00  0.00    +0.055 C 
BRANCH  25  26
ATOM     26  CG  PHE A   5      -6.854 -11.257  27.036  0.00  0.00    -0.020 A 
ATOM     27  CD2 PHE A   5      -7.280 -10.117  27.724  0.00  0.00    -0.004 A 
ATOM     28  CE2 PHE A   5      -6.357  -9.257  28.318  0.00  0.00    -0.000 A 
ATOM     29  CZ  PHE A   5      -4.995  -9.555  28.261  0.00  0.00    -0.000 A 
ATOM     30  CE1 PHE A   5      -4.571 -10.693  27.604  0.00  0.00    -0.000 A 
ATOM     31  CD1 PHE A   5      -5.502 -11.550  27.010  0.00  0.00    -0.004 A 
ENDBRANCH  25  26
ENDBRANCH   5  25
ENDBRANCH   3   5
BRANCH   1  32
ATOM     32  CA  LEU A   4      -6.172 -15.577  29.441  0.00  0.00    +0.149 C 
BRANCH  32  34
ATOM     33  C   ALA A   3      -6.107 -16.998  27.447  0.00  0.00    +0.241 C 
ATOM     34  N   LEU A   4      -5.517 -16.076  28.215  0.00  0.00    -0.297 N 
ATOM     35  H   LEU A   4      -4.584 -15.705  27.945  0.00  0.00    +0.150 HD
ATOM     36  O   ALA A   3      -7.168 -17.550  27.768  0.00  0.00    -0.273 OA
BRANCH  33  37
ATOM     37  CA  ALA A   3      -5.398 -17.391  26.132  0.00  0.00    +0.149 C 
ATOM     38  CB  ALA A   3      -5.190 -18.918  26.047  0.00  0.00    +0.031 C 
BRANCH  37  40
ATOM     39  C   ASN A   2      -4.067 -15.461  25.380  0.00  0.00    +0.241 C 
ATOM     40  N   ALA A   3      -4.128 -16.691  25.901  0.00  0.00    -0.297 N 
ATOM     41  H   ALA A   3      -3.240 -17.171  26.153  0.00  0.00    +0.150 HD
ATOM     42  O   ASN A   2      -5.073 -14.802  25.080  0.00  0.00    -0.273 OA
BRANCH  39  43
ATOM     43  CA  ASN A   2      -2.653 -14.874  25.168  0.00  0.00    +0.158 C 
BRANCH  43  46
ATOM     44  C   GLY A   1      -1.880 -15.071  27.487  0.00  0.00    +0.240 C 
ATOM     45  O   GLY A   1      -2.859 -14.460  27.927  0.00  0.00    -0.274 OA
ATOM     46  N   ASN A   2      -1.694 -15.313  26.189  0.00  0.00    -0.297 N 
ATOM     47  H   ASN A   2      -0.842 -15.829  25.890  0.00  0.00    +0.150 HD
BRANCH  44  48
ATOM     48  CA  GLY A   1      -0.807 -15.595  28.427  0.00  0.00    +0.169 C 
BRANCH  48  49
ATOM     49  N   GLY A   1      -0.352 -16.933  28.067  0.00  0.00    -0.236 NA
ATOM     50  H   GLY A   1       0.643 -17.086  27.808  0.00  0.00    +0.142 HD
ENDBRANCH  48  49
ENDBRANCH  44  48
ENDBRANCH  43  46
BRANCH  43  51
ATOM     51  CB  ASN A   2      -2.145 -15.251  23.770  0.00  0.00    +0.114 C 
BRANCH  51  52
ATOM     52  CG  ASN A   2      -2.331 -16.728  23.453  0.00  0.00    +0.222 C 
ATOM     53  OD1 ASN A   2      -1.628 -17.599  23.992  0.00  0.00    -0.275 OA
ATOM     54  ND2 ASN A   2      -3.269 -17.020  22.553  0.00  0.00    -0.329 N 
ATOM     55 HD21 ASN A   2      -3.435 -18.009  22.277  0.00  0.00    +0.145 HD
ATOM     56 HD22 ASN A   2      -3.835 -16.259  22.126  0.00  0.00    +0.145 HD
ENDBRANCH  51  52
ENDBRANCH  43  51
ENDBRANCH  39  43
ENDBRANCH  37  40
ENDBRANCH  33  37
ENDBRANCH  32  34
BRANCH  32  57
ATOM     57  CB  LEU A   4      -5.178 -14.854  30.358  0.00  0.00    +0.029 C 
BRANCH  57  58
ATOM     58  CG  LEU A   4      -4.056 -15.716  30.954  0.00  0.00    +0.002 C 
ATOM     59  CD2 LEU A   4      -4.584 -16.725  31.991  0.00  0.00    +0.000 C 
ATOM     60  CD1 LEU A   4      -2.958 -14.820  31.546  0.00  0.00    +0.000 C 
ENDBRANCH  57  58
ENDBRANCH  32  57
ENDBRANCH   1  32
TORSDOF 22
REMARK  Name = ../refined-set-2016/3k02/3k02_pocket.pdb
REMARK  243 active torsions:
REMARK  status: ('A' for Active; 'I' for Inactive)
REMARK    1  A    between atoms: _1  and  _3
REMARK    2  A    between atoms: _3  and  _4
REMARK    3  A    between atoms: _3  and  _6
REMARK    4  A    between atoms: _6  and  _7
REMARK    5  A    between atoms: _10  and  _12
REMARK    6  A    between atoms: _12  and  _13
REMARK    7  A    between atoms: _12  and  _15
REMARK    8  A    between atoms: _15  and  _16
REMARK    9  A    between atoms: _19  and  _21
REMARK   10  A    between atoms: _21  and  _22
REMARK   11  A    between atoms: _21  and  _24
REMARK   12  A    between atoms: _24  and  _25
REMARK   13  A    between atoms: _27  and  _29
REMARK   14  A    between atoms: _29  and  _30
REMARK   15  A    between atoms: _29  and  _32
REMARK   16  A    between atoms: _32  and  _33
REMARK   17  A    between atoms: _38  and  _40
REMARK   18  A    between atoms: _40  and  _41
REMARK   19  A    between atoms: _40  and  _43
REMARK   20  A    between atoms: _43  and  _44
REMARK   21  A    between atoms: _44  and  _45
REMARK   22  A    between atoms: _48  and  _50
REMARK   23  A    between atoms: _50  and  _51
REMARK   24  A    between atoms: _54  and  _56
REMARK   25  A    between atoms: _56  and  _57
REMARK   26  A    between atoms: _56  and  _59
REMARK   27  A    between atoms: _59  and  _60
REMARK   28  A    between atoms: _60  and  _61
REMARK   29  A    between atoms: _64  and  _66
REMARK   30  A    between atoms: _66  and  _67
REMARK   31  A    between atoms: _66  and  _69
REMARK   32  A    between atoms: _69  and  _70
REMARK   33  A    between atoms: _70  and  _71
REMARK   34  A    between atoms: _71  and  _72
REMARK   35  A    between atoms: _72  and  _73
REMARK   36  A    between atoms: _77  and  _79
REMARK   37  A    between atoms: _79  and  _80
REMARK   38  A    between atoms: _79  and  _82
REMARK   39  A    between atoms: _82  and  _83
REMARK   40  A    between atoms: _88  and  _89
REMARK   41  A    between atoms: _91  and  _93
REMARK   42  A    between atoms: _93  and  _94
REMARK   43  A    between atoms: _93  and  _96
REMARK   44  A    between atoms: _96  and  _97
REMARK   45  A    between atoms: _102  and  _104
REMARK   46  A    between atoms: _104  and  _105
REMARK   47  A    between atoms: _104  and  _107
REMARK   48  A    between atoms: _111  and  _112
REMARK   49  A    between atoms: _117  and  _119
REMARK   50  A    between atoms: _119  and  _120
REMARK   51  A    between atoms: _119  and  _122
REMARK   52  A    between atoms: _122  and  _123
REMARK   53  A    between atoms: _129  and  _131
REMARK   54  A    between atoms: _131  and  _132
REMARK   55  A    between atoms: _134  and  _136
REMARK   56  A    between atoms: _136  and  _137
REMARK   57  A    between atoms: _136  and  _139
REMARK   58  A    between atoms: _139  and  _140
REMARK   59  A    between atoms: _140  and  _141
REMARK   60  A    between atoms: _144  and  _146
REMARK   61  A    between atoms: _146  and  _147
REMARK   62  A    between atoms: _150  and  _152
REMARK   63  A    between atoms: _152  and  _153
REMARK   64  A    between atoms: _152  and  _155
REMARK   65  A    between atoms: _155  and  _156
REMARK   66  A    between atoms: _161  and  _163
REMARK   67  A    between atoms: _163  and  _164
REMARK   68  A    between atoms: _167  and  _169
REMARK   69  A    between atoms: _169  and  _170
REMARK   70  A    between atoms: _169  and  _172
REMARK   71  A    between atoms: _172  and  _173
REMARK   72  A    between atoms: _173  and  _174
REMARK   73  A    between atoms: _174  and  _175
REMARK   74  A    between atoms: _175  and  _176
REMARK   75  A    between atoms: _180  and  _182
REMARK   76  A    between atoms: _182  and  _183
REMARK   77  A    between atoms: _182  and  _185
REMARK   78  A    between atoms: _185  and  _186
REMARK   79  A    between atoms: _186  and  _187
REMARK   80  A    between atoms: _187  and  _188
REMARK   81  A    between atoms: _197  and  _199
REMARK   82  A    between atoms: _199  and  _200
REMARK   83  A    between atoms: _199  and  _202
REMARK   84  A    between atoms: _202  and  _203
REMARK   85  A    between atoms: _203  and  _204
REMARK   86  A    between atoms: _207  and  _209
REMARK   87  A    between atoms: _209  and  _210
REMARK   88  A    between atoms: _209  and  _212
REMARK   89  A    between atoms: _215  and  _217
REMARK   90  A    between atoms: _217  and  _218
REMARK   91  A    between atoms: _221  and  _223
REMARK   92  A    between atoms: _223  and  _224
REMARK   93  A    between atoms: _223  and  _226
REMARK   94  A    between atoms: _226  and  _227
REMARK   95  A    between atoms: _237  and  _239
REMARK   96  A    between atoms: _239  and  _240
REMARK   97  A    between atoms: _239  and  _242
REMARK   98  A    between atoms: _245  and  _247
REMARK   99  A    between atoms: _247  and  _248
REMARK  100  A    between atoms: _247  and  _250
REMARK  101  A    between atoms: _250  and  _251
REMARK  102  A    between atoms: _254  and  _256
REMARK  103  A    between atoms: _256  and  _257
REMARK  104  A    between atoms: _256  and  _259
REMARK  105  A    between atoms: _259  and  _260
REMARK  106  A    between atoms: _266  and  _268
REMARK  107  A    between atoms: _268  and  _269
REMARK  108  A    between atoms: _268  and  _271
REMARK  109  A    between atoms: _271  and  _272
REMARK  110  A    between atoms: _272  and  _273
REMARK  111  A    between atoms: _278  and  _280
REMARK  112  A    between atoms: _280  and  _281
REMARK  113  A    between atoms: _280  and  _283
REMARK  114  A    between atoms: _286  and  _288
REMARK  115  A    between atoms: _288  and  _289
REMARK  116  A    between atoms: _288  and  _291
REMARK  117  A    between atoms: _291  and  _292
REMARK  118  A    between atoms: _295  and  _297
REMARK  119  A    between atoms: _297  and  _298
REMARK  120  A    between atoms: _297  and  _300
REMARK  121  A    between atoms: _300  and  _301
REMARK  122  A    between atoms: _304  and  _306
REMARK  123  A    between atoms: _306  and  _307
REMARK  124  A    between atoms: _306  and  _309
REMARK  125  A    between atoms: _309  and  _310
REMARK  126  A    between atoms: _313  and  _315
REMARK  127  A    between atoms: _315  and  _316
REMARK  128  A    between atoms: _315  and  _318
REMARK  129  A    between atoms: _318  and  _319
REMARK  130  A    between atoms: _322  and  _324
REMARK  131  A    between atoms: _324  and  _325
REMARK  132  A    between atoms: _324  and  _327
REMARK  133  A    between atoms: _327  and  _328
REMARK  134  A    between atoms: _328  and  _329
REMARK  135  A    between atoms: _329  and  _330
REMARK  136  A    between atoms: _339  and  _341
REMARK  137  A    between atoms: _341  and  _342
REMARK  138  A    between atoms: _341  and  _344
REMARK  139  A    between atoms: _344  and  _345
REMARK  140  A    between atoms: _348  and  _350
REMARK  141  A    between atoms: _350  and  _351
REMARK  142  A    between atoms: _350  and  _353
REMARK  143  A    between atoms: _353  and  _354
REMARK  144  A    between atoms: _358  and  _359
REMARK  145  A    between atoms: _364  and  _366
REMARK  146  A    between atoms: _366  and  _367
REMARK  147  A    between atoms: _366  and  _369
REMARK  148  A    between atoms: _369  and  _370
REMARK  149  A    between atoms: _375  and  _376
REMARK  150  A    between atoms: _378  and  _380
REMARK  151  A    between atoms: _380  and  _381
REMARK  152  A    between atoms: _380  and  _383
REMARK  153  A    between atoms: _383  and  _384
REMARK  154  A    between atoms: _394  and  _396
REMARK  155  A    between atoms: _396  and  _397
REMARK  156  A    between atoms: _396  and  _399
REMARK  157  A    between atoms: _399  and  _400
REMARK  158  A    between atoms: _406  and  _408
REMARK  159  A    between atoms: _408  and  _409
REMARK  160  A    between atoms: _408  and  _411
REMARK  161  A    between atoms: _411  and  _412
REMARK  162  A    between atoms: _415  and  _417
REMARK  163  A    between atoms: _417  and  _418
REMARK  164  A    between atoms: _417  and  _420
REMARK  165  A    between atoms: _420  and  _421
REMARK  166  A    between atoms: _431  and  _433
REMARK  167  A    between atoms: _433  and  _434
REMARK  168  A    between atoms: _433  and  _436
REMARK  169  A    between atoms: _436  and  _437
REMARK  170  A    between atoms: _437  and  _438
REMARK  171  A    between atoms: _440  and  _442
REMARK  172  A    between atoms: _442  and  _443
REMARK  173  A    between atoms: _442  and  _445
REMARK  174  A    between atoms: _445  and  _446
REMARK  175  A    between atoms: _451  and  _453
REMARK  176  A    between atoms: _453  and  _454
REMARK  177  A    between atoms: _457  and  _458
REMARK  178  A    between atoms: _463  and  _465
REMARK  179  A    between atoms: _465  and  _466
REMARK  180  A    between atoms: _465  and  _468
REMARK  181  A    between atoms: _468  and  _469
REMARK  182  A    between atoms: _479  and  _481
REMARK  183  A    between atoms: _481  and  _482
REMARK  184  A    between atoms: _486  and  _487
REMARK  185  A    between atoms: _492  and  _494
REMARK  186  A    between atoms: _494  and  _495
REMARK  187  A    between atoms: _494  and  _497
REMARK  188  A    between atoms: _497  and  _498
REMARK  189  A    between atoms: _498  and  _499
REMARK  190  A    between atoms: _504  and  _506
REMARK  191  A    between atoms: _506  and  _507
REMARK  192  A    between atoms: _509  and  _511
REMARK  193  A    between atoms: _511  and  _512
REMARK  194  A    between atoms: _514  and  _516
REMARK  195  A    between atoms: _516  and  _517
REMARK  196  A    between atoms: _516  and  _519
REMARK  197  A    between atoms: _519  and  _520
REMARK  198  A    between atoms: _530  and  _532
REMARK  199  A    between atoms: _532  and  _533
REMARK  200  A    between atoms: _532  and  _535
REMARK  201  A    between atoms: _535  and  _536
REMARK  202  A    between atoms: _539  and  _541
REMARK  203  A    between atoms: _541  and  _542
REMARK  204  A    between atoms: _541  and  _544
REMARK  205  A    between atoms: _544  and  _545
REMARK  206  A    between atoms: _548  and  _550
REMARK  207  A    between atoms: _550  and  _551
REMARK  208  A    between atoms: _550  and  _553
REMARK  209  A    between atoms: _553  and  _554
REMARK  210  A    between atoms: _554  and  _555
REMARK  211  A    between atoms: _555  and  _556
REMARK  212  A    between atoms: _565  and  _567
REMARK  213  A    between atoms: _567  and  _568
REMARK  214  A    between atoms: _567  and  _570
REMARK  215  A    between atoms: _570  and  _571
REMARK  216  A    between atoms: _581  and  _583
REMARK  217  A    between atoms: _583  and  _584
REMARK  218  A    between atoms: _586  and  _588
REMARK  219  A    between atoms: _588  and  _589
REMARK  220  A    between atoms: _588  and  _591
REMARK  221  A    between atoms: _591  and  _592
REMARK  222  A    between atoms: _597  and  _599
REMARK  223  A    between atoms: _599  and  _600
REMARK  224  A    between atoms: _603  and  _605
REMARK  225  A    between atoms: _605  and  _606
REMARK  226  A    between atoms: _605  and  _608
REMARK  227  A    between atoms: _608  and  _609
REMARK  228  A    between atoms: _612  and  _614
REMARK  229  A    between atoms: _614  and  _615
REMARK  230  A    between atoms: _614  and  _617
REMARK  231  A    between atoms: _617  and  _618
REMARK  232  A    between atoms: _624  and  _626
REMARK  233  A    between atoms: _626  and  _627
REMARK  234  A    between atoms: _626  and  _629
REMARK  235  A    between atoms: _629  and  _630
REMARK  236  A    between atoms: _630  and  _631
REMARK  237  A    between atoms: _635  and  _636
REMARK  238  A    between atoms: _641  and  _643
REMARK  239  A    between atoms: _643  and  _644
REMARK  240  A    between atoms: _643  and  _646
REMARK  241  A    between atoms: _646  and  _647
REMARK  242  A    between atoms: _647  and  _648
REMARK  243  A    between atoms: _648  and  _649
REMARK                            x       y       z     vdW  Elec       q    Type
REMARK                         _______ _______ _______ _____ _____    ______ ____
ROOT
ATOM      1  NE  ARG A   1     -14.719 -13.892  22.714  0.00  0.00    -0.265 N 
ATOM      2  HE  ARG A   1     -13.951 -14.585  22.825  0.00  0.00    +0.259 HD
ATOM      3  CZ  ARG A   1     -15.912 -14.353  22.342  0.00  0.00    +0.342 C 
ATOM      4  NH2 ARG A   1     -16.962 -13.542  22.255  0.00  0.00    -0.292 N 
ATOM      5 HH21 ARG A   1     -16.859 -12.532  22.479  0.00  0.00    +0.255 HD
ATOM      6 HH22 ARG A   1     -17.887 -13.918  21.963  0.00  0.00    +0.255 HD
ATOM      7  NH1 ARG A   1     -16.063 -15.654  22.088  0.00  0.00    -0.292 N 
ATOM      8 HH11 ARG A   1     -15.253 -16.299  22.181  0.00  0.00    +0.255 HD
ATOM      9 HH12 ARG A   1     -16.991 -16.023  21.797  0.00  0.00    +0.255 HD
ENDROOT
BRANCH   1  10
ATOM     10  CD  ARG A   1     -14.403 -12.490  22.978  0.00  0.00    +0.174 C 
BRANCH  10  11
ATOM     11  CG  ARG A   1     -14.894 -11.955  24.332  0.00  0.00    +0.045 C 
BRANCH  11  12
ATOM     12  CB  ARG A   1     -14.058 -12.501  25.459  0.00  0.00    +0.029 C 
BRANCH  12  13
ATOM     13  CA  ARG A   1     -14.598 -12.157  26.843  0.00  0.00    +0.133 C 
BRANCH  13  14
ATOM     14  N   ARG A   1     -13.713 -12.660  27.886  0.00  0.00    -0.239 NA
ATOM     15  H   ARG A   1     -12.860 -13.194  27.623  0.00  0.00    +0.142 HD
ENDBRANCH  13  14
BRANCH  13  16
ATOM     16  C   ARG A   1     -16.012 -12.735  27.024  0.00  0.00    +0.224 C 
ATOM     17  O   ARG A   1     -17.023 -11.995  26.996  0.00  0.00    -0.287 OA
ENDBRANCH  13  16
ENDBRANCH  12  13
ENDBRANCH  11  12
ENDBRANCH  10  11
ENDBRANCH   1  10
TORSDOF 6
REMARK  Name = ../refined-set-2016/3k02/3k02_pocket.pdb
REMARK  243 active torsions:
REMARK  status: ('A' for Active; 'I' for Inactive)
REMARK    1  A    between atoms: _1  and  _3
REMARK    2  A    between atoms: _3  and  _4
REMARK    3  A    between atoms: _3  and  _6
REMARK    4  A    between atoms: _6  and  _7
REMARK    5  A    between atoms: _10  and  _12
REMARK    6  A    between atoms: _12  and  _13
REMARK    7  A    between atoms: _12  and  _15
REMARK    8  A    between atoms: _15  and  _16
REMARK    9  A    between atoms: _19  and  _21
REMARK   10  A    between atoms: _21  and  _22
REMARK   11  A    between atoms: _21  and  _24
REMARK   12  A    between atoms: _24  and  _25
REMARK   13  A    between atoms: _27  and  _29
REMARK   14  A    between atoms: _29  and  _30
REMARK   15  A    between atoms: _29  and  _32
REMARK   16  A    between atoms: _32  and  _33
REMARK   17  A    between atoms: _38  and  _40
REMARK   18  A    between atoms: _40  and  _41
REMARK   19  A    between atoms: _40  and  _43
REMARK   20  A    between atoms: _43  and  _44
REMARK   21  A    between atoms: _44  and  _45
REMARK   22  A    between atoms: _48  and  _50
REMARK   23  A    between atoms: _50  and  _51
REMARK   24  A    between atoms: _54  and  _56
REMARK   25  A    between atoms: _56  and  _57
REMARK   26  A    between atoms: _56  and  _59
REMARK   27  A    between atoms: _59  and  _60
REMARK   28  A    between atoms: _60  and  _61
REMARK   29  A    between atoms: _64  and  _66
REMARK   30  A    between atoms: _66  and  _67
REMARK   31  A    between atoms: _66  and  _69
REMARK   32  A    between atoms: _69  and  _70
REMARK   33  A    between atoms: _70  and  _71
REMARK   34  A    between atoms: _71  and  _72
REMARK   35  A    between atoms: _72  and  _73
REMARK   36  A    between atoms: _77  and  _79
REMARK   37  A    between atoms: _79  and  _80
REMARK   38  A    between atoms: _79  and  _82
REMARK   39  A    between atoms: _82  and  _83
REMARK   40  A    between atoms: _88  and  _89
REMARK   41  A    between atoms: _91  and  _93
REMARK   42  A    between atoms: _93  and  _94
REMARK   43  A    between atoms: _93  and  _96
REMARK   44  A    between atoms: _96  and  _97
REMARK   45  A    between atoms: _102  and  _104
REMARK   46  A    between atoms: _104  and  _105
REMARK   47  A    between atoms: _104  and  _107
REMARK   48  A    between atoms: _111  and  _112
REMARK   49  A    between atoms: _117  and  _119
REMARK   50  A    between atoms: _119  and  _120
REMARK   51  A    between atoms: _119  and  _122
REMARK   52  A    between atoms: _122  and  _123
REMARK   53  A    between atoms: _129  and  _131
REMARK   54  A    between atoms: _131  and  _132
REMARK   55  A    between atoms: _134  and  _136
REMARK   56  A    between atoms: _136  and  _137
REMARK   57  A    between atoms: _136  and  _139
REMARK   58  A    between atoms: _139  and  _140
REMARK   59  A    between atoms: _140  and  _141
REMARK   60  A    between atoms: _144  and  _146
REMARK   61  A    between atoms: _146  and  _147
REMARK   62  A    between atoms: _150  and  _152
REMARK   63  A    between atoms: _152  and  _153
REMARK   64  A    between atoms: _152  and  _155
REMARK   65  A    between atoms: _155  and  _156
REMARK   66  A    between atoms: _161  and  _163
REMARK   67  A    between atoms: _163  and  _164
REMARK   68  A    between atoms: _167  and  _169
REMARK   69  A    between atoms: _169  and  _170
REMARK   70  A    between atoms: _169  and  _172
REMARK   71  A    between atoms: _172  and  _173
REMARK   72  A    between atoms: _173  and  _174
REMARK   73  A    between atoms: _174  and  _175
REMARK   74  A    between atoms: _175  and  _176
REMARK   75  A    between atoms: _180  and  _182
REMARK   76  A    between atoms: _182  and  _183
REMARK   77  A    between atoms: _182  and  _185
REMARK   78  A    between atoms: _185  and  _186
REMARK   79  A    between atoms: _186  and  _187
REMARK   80  A    between atoms: _187  and  _188
REMARK   81  A    between atoms: _197  and  _199
REMARK   82  A    between atoms: _199  and  _200
REMARK   83  A    between atoms: _199  and  _202
REMARK   84  A    between atoms: _202  and  _203
REMARK   85  A    between atoms: _203  and  _204
REMARK   86  A    between atoms: _207  and  _209
REMARK   87  A    between atoms: _209  and  _210
REMARK   88  A    between atoms: _209  and  _212
REMARK   89  A    between atoms: _215  and  _217
REMARK   90  A    between atoms: _217  and  _218
REMARK   91  A    between atoms: _221  and  _223
REMARK   92  A    between atoms: _223  and  _224
REMARK   93  A    between atoms: _223  and  _226
REMARK   94  A    between atoms: _226  and  _227
REMARK   95  A    between atoms: _237  and  _239
REMARK   96  A    between atoms: _239  and  _240
REMARK   97  A    between atoms: _239  and  _242
REMARK   98  A    between atoms: _245  and  _247
REMARK   99  A    between atoms: _247  and  _248
REMARK  100  A    between atoms: _247  and  _250
REMARK  101  A    between atoms: _250  and  _251
REMARK  102  A    between atoms: _254  and  _256
REMARK  103  A    between atoms: _256  and  _257
REMARK  104  A    between atoms: _256  and  _259
REMARK  105  A    between atoms: _259  and  _260
REMARK  106  A    between atoms: _266  and  _268
REMARK  107  A    between atoms: _268  and  _269
REMARK  108  A    between atoms: _268  and  _271
REMARK  109  A    between atoms: _271  and  _272
REMARK  110  A    between atoms: _272  and  _273
REMARK  111  A    between atoms: _278  and  _280
REMARK  112  A    between atoms: _280  and  _281
REMARK  113  A    between atoms: _280  and  _283
REMARK  114  A    between atoms: _286  and  _288
REMARK  115  A    between atoms: _288  and  _289
REMARK  116  A    between atoms: _288  and  _291
REMARK  117  A    between atoms: _291  and  _292
REMARK  118  A    between atoms: _295  and  _297
REMARK  119  A    between atoms: _297  and  _298
REMARK  120  A    between atoms: _297  and  _300
REMARK  121  A    between atoms: _300  and  _301
REMARK  122  A    between atoms: _304  and  _306
REMARK  123  A    between atoms: _306  and  _307
REMARK  124  A    between atoms: _306  and  _309
REMARK  125  A    between atoms: _309  and  _310
REMARK  126  A    between atoms: _313  and  _315
REMARK  127  A    between atoms: _315  and  _316
REMARK  128  A    between atoms: _315  and  _318
REMARK  129  A    between atoms: _318  and  _319
REMARK  130  A    between atoms: _322  and  _324
REMARK  131  A    between atoms: _324  and  _325
REMARK  132  A    between atoms: _324  and  _327
REMARK  133  A    between atoms: _327  and  _328
REMARK  134  A    between atoms: _328  and  _329
REMARK  135  A    between atoms: _329  and  _330
REMARK  136  A    between atoms: _339  and  _341
REMARK  137  A    between atoms: _341  and  _342
REMARK  138  A    between atoms: _341  and  _344
REMARK  139  A    between atoms: _344  and  _345
REMARK  140  A    between atoms: _348  and  _350
REMARK  141  A    between atoms: _350  and  _351
REMARK  142  A    between atoms: _350  and  _353
REMARK  143  A    between atoms: _353  and  _354
REMARK  144  A    between atoms: _358  and  _359
REMARK  145  A    between atoms: _364  and  _366
REMARK  146  A    between atoms: _366  and  _367
REMARK  147  A    between atoms: _366  and  _369
REMARK  148  A    between atoms: _369  and  _370
REMARK  149  A    between atoms: _375  and  _376
REMARK  150  A    between atoms: _378  and  _380
REMARK  151  A    between atoms: _380  and  _381
REMARK  152  A    between atoms: _380  and  _383
REMARK  153  A    between atoms: _383  and  _384
REMARK  154  A    between atoms: _394  and  _396
REMARK  155  A    between atoms: _396  and  _397
REMARK  156  A    between atoms: _396  and  _399
REMARK  157  A    between atoms: _399  and  _400
REMARK  158  A    between atoms: _406  and  _408
REMARK  159  A    between atoms: _408  and  _409
REMARK  160  A    between atoms: _408  and  _411
REMARK  161  A    between atoms: _411  and  _412
REMARK  162  A    between atoms: _415  and  _417
REMARK  163  A    between atoms: _417  and  _418
REMARK  164  A    between atoms: _417  and  _420
REMARK  165  A    between atoms: _420  and  _421
REMARK  166  A    between atoms: _431  and  _433
REMARK  167  A    between atoms: _433  and  _434
REMARK  168  A    between atoms: _433  and  _436
REMARK  169  A    between atoms: _436  and  _437
REMARK  170  A    between atoms: _437  and  _438
REMARK  171  A    between atoms: _440  and  _442
REMARK  172  A    between atoms: _442  and  _443
REMARK  173  A    between atoms: _442  and  _445
REMARK  174  A    between atoms: _445  and  _446
REMARK  175  A    between atoms: _451  and  _453
REMARK  176  A    between atoms: _453  and  _454
REMARK  177  A    between atoms: _457  and  _458
REMARK  178  A    between atoms: _463  and  _465
REMARK  179  A    between atoms: _465  and  _466
REMARK  180  A    between atoms: _465  and  _468
REMARK  181  A    between atoms: _468  and  _469
REMARK  182  A    between atoms: _479  and  _481
REMARK  183  A    between atoms: _481  and  _482
REMARK  184  A    between atoms: _486  and  _487
REMARK  185  A    between atoms: _492  and  _494
REMARK  186  A    between atoms: _494  and  _495
REMARK  187  A    between atoms: _494  and  _497
REMARK  188  A    between atoms: _497  and  _498
REMARK  189  A    between atoms: _498  and  _499
REMARK  190  A    between atoms: _504  and  _506
REMARK  191  A    between atoms: _506  and  _507
REMARK  192  A    between atoms: _509  and  _511
REMARK  193  A    between atoms: _511  and  _512
REMARK  194  A    between atoms: _514  and  _516
REMARK  195  A    between atoms: _516  and  _517
REMARK  196  A    between atoms: _516  and  _519
REMARK  197  A    between atoms: _519  and  _520
REMARK  198  A    between atoms: _530  and  _532
REMARK  199  A    between atoms: _532  and  _533
REMARK  200  A    between atoms: _532  and  _535
REMARK  201  A    between atoms: _535  and  _536
REMARK  202  A    between atoms: _539  and  _541
REMARK  203  A    between atoms: _541  and  _542
REMARK  204  A    between atoms: _541  and  _544
REMARK  205  A    between atoms: _544  and  _545
REMARK  206  A    between atoms: _548  and  _550
REMARK  207  A    between atoms: _550  and  _551
REMARK  208  A    between atoms: _550  and  _553
REMARK  209  A    between atoms: _553  and  _554
REMARK  210  A    between atoms: _554  and  _555
REMARK  211  A    between atoms: _555  and  _556
REMARK  212  A    between atoms: _565  and  _567
REMARK  213  A    between atoms: _567  and  _568
REMARK  214  A    between atoms: _567  and  _570
REMARK  215  A    between atoms: _570  and  _571
REMARK  216  A    between atoms: _581  and  _583
REMARK  217  A    between atoms: _583  and  _584
REMARK  218  A    between atoms: _586  and  _588
REMARK  219  A    between atoms: _588  and  _589
REMARK  220  A    between atoms: _588  and  _591
REMARK  221  A    between atoms: _591  and  _592
REMARK  222  A    between atoms: _597  and  _599
REMARK  223  A    between atoms: _599  and  _600
REMARK  224  A    between atoms: _603  and  _605
REMARK  225  A    between atoms: _605  and  _606
REMARK  226  A    between atoms: _605  and  _608
REMARK  227  A    between atoms: _608  and  _609
REMARK  228  A    between atoms: _612  and  _614
REMARK  229  A    between atoms: _614  and  _615
REMARK  230  A    between atoms: _614  and  _617
REMARK  231  A    between atoms: _617  and  _618
REMARK  232  A    between atoms: _624  and  _626
REMARK  233  A    between atoms: _626  and  _627
REMARK  234  A    between atoms: _626  and  _629
REMARK  235  A    between atoms: _629  and  _630
REMARK  236  A    between atoms: _630  and  _631
REMARK  237  A    between atoms: _635  and  _636
REMARK  238  A    between atoms: _641  and  _643
REMARK  239  A    between atoms: _643  and  _644
REMARK  240  A    between atoms: _643  and  _646
REMARK  241  A    between atoms: _646  and  _647
REMARK  242  A    between atoms: _647  and  _648
REMARK  243  A    between atoms: _648  and  _649
REMARK                            x       y       z     vdW  Elec       q    Type
REMARK                         _______ _______ _______ _____ _____    ______ ____
ROOT
ATOM      1  O   HOH     1      -0.282   0.455  17.090  0.00  0.00    +0.000 OA
ENDROOT
TORSDOF 0
REMARK  Name = ../refined-set-2016/3k02/3k02_pocket.pdb
REMARK  243 active torsions:
REMARK  status: ('A' for Active; 'I' for Inactive)
REMARK    1  A    between atoms: _1  and  _3
REMARK    2  A    between atoms: _3  and  _4
REMARK    3  A    between atoms: _3  and  _6
REMARK    4  A    between atoms: _6  and  _7
REMARK    5  A    between atoms: _10  and  _12
REMARK    6  A    between atoms: _12  and  _13
REMARK    7  A    between atoms: _12  and  _15
REMARK    8  A    between atoms: _15  and  _16
REMARK    9  A    between atoms: _19  and  _21
REMARK   10  A    between atoms: _21  and  _22
REMARK   11  A    between atoms: _21  and  _24
REMARK   12  A    between atoms: _24  and  _25
REMARK   13  A    between atoms: _27  and  _29
REMARK   14  A    between atoms: _29  and  _30
REMARK   15  A    between atoms: _29  and  _32
REMARK   16  A    between atoms: _32  and  _33
REMARK   17  A    between atoms: _38  and  _40
REMARK   18  A    between atoms: _40  and  _41
REMARK   19  A    between atoms: _40  and  _43
REMARK   20  A    between atoms: _43  and  _44
REMARK   21  A    between atoms: _44  and  _45
REMARK   22  A    between atoms: _48  and  _50
REMARK   23  A    between atoms: _50  and  _51
REMARK   24  A    between atoms: _54  and  _56
REMARK   25  A    between atoms: _56  and  _57
REMARK   26  A    between atoms: _56  and  _59
REMARK   27  A    between atoms: _59  and  _60
REMARK   28  A    between atoms: _60  and  _61
REMARK   29  A    between atoms: _64  and  _66
REMARK   30  A    between atoms: _66  and  _67
REMARK   31  A    between atoms: _66  and  _69
REMARK   32  A    between atoms: _69  and  _70
REMARK   33  A    between atoms: _70  and  _71
REMARK   34  A    between atoms: _71  and  _72
REMARK   35  A    between atoms: _72  and  _73
REMARK   36  A    between atoms: _77  and  _79
REMARK   37  A    between atoms: _79  and  _80
REMARK   38  A    between atoms: _79  and  _82
REMARK   39  A    between atoms: _82  and  _83
REMARK   40  A    between atoms: _88  and  _89
REMARK   41  A    between atoms: _91  and  _93
REMARK   42  A    between atoms: _93  and  _94
REMARK   43  A    between atoms: _93  and  _96
REMARK   44  A    between atoms: _96  and  _97
REMARK   45  A    between atoms: _102  and  _104
REMARK   46  A    between atoms: _104  and  _105
REMARK   47  A    between atoms: _104  and  _107
REMARK   48  A    between atoms: _111  and  _112
REMARK   49  A    between atoms: _117  and  _119
REMARK   50  A    between atoms: _119  and  _120
REMARK   51  A    between atoms: _119  and  _122
REMARK   52  A    between atoms: _122  and  _123
REMARK   53  A    between atoms: _129  and  _131
REMARK   54  A    between atoms: _131  and  _132
REMARK   55  A    between atoms: _134  and  _136
REMARK   56  A    between atoms: _136  and  _137
REMARK   57  A    between atoms: _136  and  _139
REMARK   58  A    between atoms: _139  and  _140
REMARK   59  A    between atoms: _140  and  _141
REMARK   60  A    between atoms: _144  and  _146
REMARK   61  A    between atoms: _146  and  _147
REMARK   62  A    between atoms: _150  and  _152
REMARK   63  A    between atoms: _152  and  _153
REMARK   64  A    between atoms: _152  and  _155
REMARK   65  A    between atoms: _155  and  _156
REMARK   66  A    between atoms: _161  and  _163
REMARK   67  A    between atoms: _163  and  _164
REMARK   68  A    between atoms: _167  and  _169
REMARK   69  A    between atoms: _169  and  _170
REMARK   70  A    between atoms: _169  and  _172
REMARK   71  A    between atoms: _172  and  _173
REMARK   72  A    between atoms: _173  and  _174
REMARK   73  A    between atoms: _174  and  _175
REMARK   74  A    between atoms: _175  and  _176
REMARK   75  A    between atoms: _180  and  _182
REMARK   76  A    between atoms: _182  and  _183
REMARK   77  A    between atoms: _182  and  _185
REMARK   78  A    between atoms: _185  and  _186
REMARK   79  A    between atoms: _186  and  _187
REMARK   80  A    between atoms: _187  and  _188
REMARK   81  A    between atoms: _197  and  _199
REMARK   82  A    between atoms: _199  and  _200
REMARK   83  A    between atoms: _199  and  _202
REMARK   84  A    between atoms: _202  and  _203
REMARK   85  A    between atoms: _203  and  _204
REMARK   86  A    between atoms: _207  and  _209
REMARK   87  A    between atoms: _209  and  _210
REMARK   88  A    between atoms: _209  and  _212
REMARK   89  A    between atoms: _215  and  _217
REMARK   90  A    between atoms: _217  and  _218
REMARK   91  A    between atoms: _221  and  _223
REMARK   92  A    between atoms: _223  and  _224
REMARK   93  A    between atoms: _223  and  _226
REMARK   94  A    between atoms: _226  and  _227
REMARK   95  A    between atoms: _237  and  _239
REMARK   96  A    between atoms: _239  and  _240
REMARK   97  A    between atoms: _239  and  _242
REMARK   98  A    between atoms: _245  and  _247
REMARK   99  A    between atoms: _247  and  _248
REMARK  100  A    between atoms: _247  and  _250
REMARK  101  A    between atoms: _250  and  _251
REMARK  102  A    between atoms: _254  and  _256
REMARK  103  A    between atoms: _256  and  _257
REMARK  104  A    between atoms: _256  and  _259
REMARK  105  A    between atoms: _259  and  _260
REMARK  106  A    between atoms: _266  and  _268
REMARK  107  A    between atoms: _268  and  _269
REMARK  108  A    between atoms: _268  and  _271
REMARK  109  A    between atoms: _271  and  _272
REMARK  110  A    between atoms: _272  and  _273
REMARK  111  A    between atoms: _278  and  _280
REMARK  112  A    between atoms: _280  and  _281
REMARK  113  A    between atoms: _280  and  _283
REMARK  114  A    between atoms: _286  and  _288
REMARK  115  A    between atoms: _288  and  _289
REMARK  116  A    between atoms: _288  and  _291
REMARK  117  A    between atoms: _291  and  _292
REMARK  118  A    between atoms: _295  and  _297
REMARK  119  A    between atoms: _297  and  _298
REMARK  120  A    between atoms: _297  and  _300
REMARK  121  A    between atoms: _300  and  _301
REMARK  122  A    between atoms: _304  and  _306
REMARK  123  A    between atoms: _306  and  _307
REMARK  124  A    between atoms: _306  and  _309
REMARK  125  A    between atoms: _309  and  _310
REMARK  126  A    between atoms: _313  and  _315
REMARK  127  A    between atoms: _315  and  _316
REMARK  128  A    between atoms: _315  and  _318
REMARK  129  A    between atoms: _318  and  _319
REMARK  130  A    between atoms: _322  and  _324
REMARK  131  A    between atoms: _324  and  _325
REMARK  132  A    between atoms: _324  and  _327
REMARK  133  A    between atoms: _327  and  _328
REMARK  134  A    between atoms: _328  and  _329
REMARK  135  A    between atoms: _329  and  _330
REMARK  136  A    between atoms: _339  and  _341
REMARK  137  A    between atoms: _341  and  _342
REMARK  138  A    between atoms: _341  and  _344
REMARK  139  A    between atoms: _344  and  _345
REMARK  140  A    between atoms: _348  and  _350
REMARK  141  A    between atoms: _350  and  _351
REMARK  142  A    between atoms: _350  and  _353
REMARK  143  A    between atoms: _353  and  _354
REMARK  144  A    between atoms: _358  and  _359
REMARK  145  A    between atoms: _364  and  _366
REMARK  146  A    between atoms: _366  and  _367
REMARK  147  A    between atoms: _366  and  _369
REMARK  148  A    between atoms: _369  and  _370
REMARK  149  A    between atoms: _375  and  _376
REMARK  150  A    between atoms: _378  and  _380
REMARK  151  A    between atoms: _380  and  _381
REMARK  152  A    between atoms: _380  and  _383
REMARK  153  A    between atoms: _383  and  _384
REMARK  154  A    between atoms: _394  and  _396
REMARK  155  A    between atoms: _396  and  _397
REMARK  156  A    between atoms: _396  and  _399
REMARK  157  A    between atoms: _399  and  _400
REMARK  158  A    between atoms: _406  and  _408
REMARK  159  A    between atoms: _408  and  _409
REMARK  160  A    between atoms: _408  and  _411
REMARK  161  A    between atoms: _411  and  _412
REMARK  162  A    between atoms: _415  and  _417
REMARK  163  A    between atoms: _417  and  _418
REMARK  164  A    between atoms: _417  and  _420
REMARK  165  A    between atoms: _420  and  _421
REMARK  166  A    between atoms: _431  and  _433
REMARK  167  A    between atoms: _433  and  _434
REMARK  168  A    between atoms: _433  and  _436
REMARK  169  A    between atoms: _436  and  _437
REMARK  170  A    between atoms: _437  and  _438
REMARK  171  A    between atoms: _440  and  _442
REMARK  172  A    between atoms: _442  and  _443
REMARK  173  A    between atoms: _442  and  _445
REMARK  174  A    between atoms: _445  and  _446
REMARK  175  A    between atoms: _451  and  _453
REMARK  176  A    between atoms: _453  and  _454
REMARK  177  A    between atoms: _457  and  _458
REMARK  178  A    between atoms: _463  and  _465
REMARK  179  A    between atoms: _465  and  _466
REMARK  180  A    between atoms: _465  and  _468
REMARK  181  A    between atoms: _468  and  _469
REMARK  182  A    between atoms: _479  and  _481
REMARK  183  A    between atoms: _481  and  _482
REMARK  184  A    between atoms: _486  and  _487
REMARK  185  A    between atoms: _492  and  _494
REMARK  186  A    between atoms: _494  and  _495
REMARK  187  A    between atoms: _494  and  _497
REMARK  188  A    between atoms: _497  and  _498
REMARK  189  A    between atoms: _498  and  _499
REMARK  190  A    between atoms: _504  and  _506
REMARK  191  A    between atoms: _506  and  _507
REMARK  192  A    between atoms: _509  and  _511
REMARK  193  A    between atoms: _511  and  _512
REMARK  194  A    between atoms: _514  and  _516
REMARK  195  A    between atoms: _516  and  _517
REMARK  196  A    between atoms: _516  and  _519
REMARK  197  A    between atoms: _519  and  _520
REMARK  198  A    between atoms: _530  and  _532
REMARK  199  A    between atoms: _532  and  _533
REMARK  200  A    between atoms: _532  and  _535
REMARK  201  A    between atoms: _535  and  _536
REMARK  202  A    between atoms: _539  and  _541
REMARK  203  A    between atoms: _541  and  _542
REMARK  204  A    between atoms: _541  and  _544
REMARK  205  A    between atoms: _544  and  _545
REMARK  206  A    between atoms: _548  and  _550
REMARK  207  A    between atoms: _550  and  _551
REMARK  208  A    between atoms: _550  and  _553
REMARK  209  A    between atoms: _553  and  _554
REMARK  210  A    between atoms: _554  and  _555
REMARK  211  A    between atoms: _555  and  _556
REMARK  212  A    between atoms: _565  and  _567
REMARK  213  A    between atoms: _567  and  _568
REMARK  214  A    between atoms: _567  and  _570
REMARK  215  A    between atoms: _570  and  _571
REMARK  216  A    between atoms: _581  and  _583
REMARK  217  A    between atoms: _583  and  _584
REMARK  218  A    between atoms: _586  and  _588
REMARK  219  A    between atoms: _588  and  _589
REMARK  220  A    between atoms: _588  and  _591
REMARK  221  A    between atoms: _591  and  _592
REMARK  222  A    between atoms: _597  and  _599
REMARK  223  A    between atoms: _599  and  _600
REMARK  224  A    between atoms: _603  and  _605
REMARK  225  A    between atoms: _605  and  _606
REMARK  226  A    between atoms: _605  and  _608
REMARK  227  A    between atoms: _608  and  _609
REMARK  228  A    between atoms: _612  and  _614
REMARK  229  A    between atoms: _614  and  _615
REMARK  230  A    between atoms: _614  and  _617
REMARK  231  A    between atoms: _617  and  _618
REMARK  232  A    between atoms: _624  and  _626
REMARK  233  A    between atoms: _626  and  _627
REMARK  234  A    between atoms: _626  and  _629
REMARK  235  A    between atoms: _629  and  _630
REMARK  236  A    between atoms: _630  and  _631
REMARK  237  A    between atoms: _635  and  _636
REMARK  238  A    between atoms: _641  and  _643
REMARK  239  A    between atoms: _643  and  _644
REMARK  240  A    between atoms: _643  and  _646
REMARK  241  A    between atoms: _646  and  _647
REMARK  242  A    between atoms: _647  and  _648
REMARK  243  A    between atoms: _648  and  _649
REMARK                            x       y       z     vdW  Elec       q    Type
REMARK                         _______ _______ _______ _____ _____    ______ ____
ROOT
ATOM      1  O   HOH     1      -7.660  -0.578  15.756  0.00  0.00    +0.000 OA
ENDROOT
TORSDOF 0
REMARK  Name = ../refined-set-2016/3k02/3k02_pocket.pdb
REMARK  243 active torsions:
REMARK  status: ('A' for Active; 'I' for Inactive)
REMARK    1  A    between atoms: _1  and  _3
REMARK    2  A    between atoms: _3  and  _4
REMARK    3  A    between atoms: _3  and  _6
REMARK    4  A    between atoms: _6  and  _7
REMARK    5  A    between atoms: _10  and  _12
REMARK    6  A    between atoms: _12  and  _13
REMARK    7  A    between atoms: _12  and  _15
REMARK    8  A    between atoms: _15  and  _16
REMARK    9  A    between atoms: _19  and  _21
REMARK   10  A    between atoms: _21  and  _22
REMARK   11  A    between atoms: _21  and  _24
REMARK   12  A    between atoms: _24  and  _25
REMARK   13  A    between atoms: _27  and  _29
REMARK   14  A    between atoms: _29  and  _30
REMARK   15  A    between atoms: _29  and  _32
REMARK   16  A    between atoms: _32  and  _33
REMARK   17  A    between atoms: _38  and  _40
REMARK   18  A    between atoms: _40  and  _41
REMARK   19  A    between atoms: _40  and  _43
REMARK   20  A    between atoms: _43  and  _44
REMARK   21  A    between atoms: _44  and  _45
REMARK   22  A    between atoms: _48  and  _50
REMARK   23  A    between atoms: _50  and  _51
REMARK   24  A    between atoms: _54  and  _56
REMARK   25  A    between atoms: _56  and  _57
REMARK   26  A    between atoms: _56  and  _59
REMARK   27  A    between atoms: _59  and  _60
REMARK   28  A    between atoms: _60  and  _61
REMARK   29  A    between atoms: _64  and  _66
REMARK   30  A    between atoms: _66  and  _67
REMARK   31  A    between atoms: _66  and  _69
REMARK   32  A    between atoms: _69  and  _70
REMARK   33  A    between atoms: _70  and  _71
REMARK   34  A    between atoms: _71  and  _72
REMARK   35  A    between atoms: _72  and  _73
REMARK   36  A    between atoms: _77  and  _79
REMARK   37  A    between atoms: _79  and  _80
REMARK   38  A    between atoms: _79  and  _82
REMARK   39  A    between atoms: _82  and  _83
REMARK   40  A    between atoms: _88  and  _89
REMARK   41  A    between atoms: _91  and  _93
REMARK   42  A    between atoms: _93  and  _94
REMARK   43  A    between atoms: _93  and  _96
REMARK   44  A    between atoms: _96  and  _97
REMARK   45  A    between atoms: _102  and  _104
REMARK   46  A    between atoms: _104  and  _105
REMARK   47  A    between atoms: _104  and  _107
REMARK   48  A    between atoms: _111  and  _112
REMARK   49  A    between atoms: _117  and  _119
REMARK   50  A    between atoms: _119  and  _120
REMARK   51  A    between atoms: _119  and  _122
REMARK   52  A    between atoms: _122  and  _123
REMARK   53  A    between atoms: _129  and  _131
REMARK   54  A    between atoms: _131  and  _132
REMARK   55  A    between atoms: _134  and  _136
REMARK   56  A    between atoms: _136  and  _137
REMARK   57  A    between atoms: _136  and  _139
REMARK   58  A    between atoms: _139  and  _140
REMARK   59  A    between atoms: _140  and  _141
REMARK   60  A    between atoms: _144  and  _146
REMARK   61  A    between atoms: _146  and  _147
REMARK   62  A    between atoms: _150  and  _152
REMARK   63  A    between atoms: _152  and  _153
REMARK   64  A    between atoms: _152  and  _155
REMARK   65  A    between atoms: _155  and  _156
REMARK   66  A    between atoms: _161  and  _163
REMARK   67  A    between atoms: _163  and  _164
REMARK   68  A    between atoms: _167  and  _169
REMARK   69  A    between atoms: _169  and  _170
REMARK   70  A    between atoms: _169  and  _172
REMARK   71  A    between atoms: _172  and  _173
REMARK   72  A    between atoms: _173  and  _174
REMARK   73  A    between atoms: _174  and  _175
REMARK   74  A    between atoms: _175  and  _176
REMARK   75  A    between atoms: _180  and  _182
REMARK   76  A    between atoms: _182  and  _183
REMARK   77  A    between atoms: _182  and  _185
REMARK   78  A    between atoms: _185  and  _186
REMARK   79  A    between atoms: _186  and  _187
REMARK   80  A    between atoms: _187  and  _188
REMARK   81  A    between atoms: _197  and  _199
REMARK   82  A    between atoms: _199  and  _200
REMARK   83  A    between atoms: _199  and  _202
REMARK   84  A    between atoms: _202  and  _203
REMARK   85  A    between atoms: _203  and  _204
REMARK   86  A    between atoms: _207  and  _209
REMARK   87  A    between atoms: _209  and  _210
REMARK   88  A    between atoms: _209  and  _212
REMARK   89  A    between atoms: _215  and  _217
REMARK   90  A    between atoms: _217  and  _218
REMARK   91  A    between atoms: _221  and  _223
REMARK   92  A    between atoms: _223  and  _224
REMARK   93  A    between atoms: _223  and  _226
REMARK   94  A    between atoms: _226  and  _227
REMARK   95  A    between atoms: _237  and  _239
REMARK   96  A    between atoms: _239  and  _240
REMARK   97  A    between atoms: _239  and  _242
REMARK   98  A    between atoms: _245  and  _247
REMARK   99  A    between atoms: _247  and  _248
REMARK  100  A    between atoms: _247  and  _250
REMARK  101  A    between atoms: _250  and  _251
REMARK  102  A    between atoms: _254  and  _256
REMARK  103  A    between atoms: _256  and  _257
REMARK  104  A    between atoms: _256  and  _259
REMARK  105  A    between atoms: _259  and  _260
REMARK  106  A    between atoms: _266  and  _268
REMARK  107  A    between atoms: _268  and  _269
REMARK  108  A    between atoms: _268  and  _271
REMARK  109  A    between atoms: _271  and  _272
REMARK  110  A    between atoms: _272  and  _273
REMARK  111  A    between atoms: _278  and  _280
REMARK  112  A    between atoms: _280  and  _281
REMARK  113  A    between atoms: _280  and  _283
REMARK  114  A    between atoms: _286  and  _288
REMARK  115  A    between atoms: _288  and  _289
REMARK  116  A    between atoms: _288  and  _291
REMARK  117  A    between atoms: _291  and  _292
REMARK  118  A    between atoms: _295  and  _297
REMARK  119  A    between atoms: _297  and  _298
REMARK  120  A    between atoms: _297  and  _300
REMARK  121  A    between atoms: _300  and  _301
REMARK  122  A    between atoms: _304  and  _306
REMARK  123  A    between atoms: _306  and  _307
REMARK  124  A    between atoms: _306  and  _309
REMARK  125  A    between atoms: _309  and  _310
REMARK  126  A    between atoms: _313  and  _315
REMARK  127  A    between atoms: _315  and  _316
REMARK  128  A    between atoms: _315  and  _318
REMARK  129  A    between atoms: _318  and  _319
REMARK  130  A    between atoms: _322  and  _324
REMARK  131  A    between atoms: _324  and  _325
REMARK  132  A    between atoms: _324  and  _327
REMARK  133  A    between atoms: _327  and  _328
REMARK  134  A    between atoms: _328  and  _329
REMARK  135  A    between atoms: _329  and  _330
REMARK  136  A    between atoms: _339  and  _341
REMARK  137  A    between atoms: _341  and  _342
REMARK  138  A    between atoms: _341  and  _344
REMARK  139  A    between atoms: _344  and  _345
REMARK  140  A    between atoms: _348  and  _350
REMARK  141  A    between atoms: _350  and  _351
REMARK  142  A    between atoms: _350  and  _353
REMARK  143  A    between atoms: _353  and  _354
REMARK  144  A    between atoms: _358  and  _359
REMARK  145  A    between atoms: _364  and  _366
REMARK  146  A    between atoms: _366  and  _367
REMARK  147  A    between atoms: _366  and  _369
REMARK  148  A    between atoms: _369  and  _370
REMARK  149  A    between atoms: _375  and  _376
REMARK  150  A    between atoms: _378  and  _380
REMARK  151  A    between atoms: _380  and  _381
REMARK  152  A    between atoms: _380  and  _383
REMARK  153  A    between atoms: _383  and  _384
REMARK  154  A    between atoms: _394  and  _396
REMARK  155  A    between atoms: _396  and  _397
REMARK  156  A    between atoms: _396  and  _399
REMARK  157  A    between atoms: _399  and  _400
REMARK  158  A    between atoms: _406  and  _408
REMARK  159  A    between atoms: _408  and  _409
REMARK  160  A    between atoms: _408  and  _411
REMARK  161  A    between atoms: _411  and  _412
REMARK  162  A    between atoms: _415  and  _417
REMARK  163  A    between atoms: _417  and  _418
REMARK  164  A    between atoms: _417  and  _420
REMARK  165  A    between atoms: _420  and  _421
REMARK  166  A    between atoms: _431  and  _433
REMARK  167  A    between atoms: _433  and  _434
REMARK  168  A    between atoms: _433  and  _436
REMARK  169  A    between atoms: _436  and  _437
REMARK  170  A    between atoms: _437  and  _438
REMARK  171  A    between atoms: _440  and  _442
REMARK  172  A    between atoms: _442  and  _443
REMARK  173  A    between atoms: _442  and  _445
REMARK  174  A    between atoms: _445  and  _446
REMARK  175  A    between atoms: _451  and  _453
REMARK  176  A    between atoms: _453  and  _454
REMARK  177  A    between atoms: _457  and  _458
REMARK  178  A    between atoms: _463  and  _465
REMARK  179  A    between atoms: _465  and  _466
REMARK  180  A    between atoms: _465  and  _468
REMARK  181  A    between atoms: _468  and  _469
REMARK  182  A    between atoms: _479  and  _481
REMARK  183  A    between atoms: _481  and  _482
REMARK  184  A    between atoms: _486  and  _487
REMARK  185  A    between atoms: _492  and  _494
REMARK  186  A    between atoms: _494  and  _495
REMARK  187  A    between atoms: _494  and  _497
REMARK  188  A    between atoms: _497  and  _498
REMARK  189  A    between atoms: _498  and  _499
REMARK  190  A    between atoms: _504  and  _506
REMARK  191  A    between atoms: _506  and  _507
REMARK  192  A    between atoms: _509  and  _511
REMARK  193  A    between atoms: _511  and  _512
REMARK  194  A    between atoms: _514  and  _516
REMARK  195  A    between atoms: _516  and  _517
REMARK  196  A    between atoms: _516  and  _519
REMARK  197  A    between atoms: _519  and  _520
REMARK  198  A    between atoms: _530  and  _532
REMARK  199  A    between atoms: _532  and  _533
REMARK  200  A    between atoms: _532  and  _535
REMARK  201  A    between atoms: _535  and  _536
REMARK  202  A    between atoms: _539  and  _541
REMARK  203  A    between atoms: _541  and  _542
REMARK  204  A    between atoms: _541  and  _544
REMARK  205  A    between atoms: _544  and  _545
REMARK  206  A    between atoms: _548  and  _550
REMARK  207  A    between atoms: _550  and  _551
REMARK  208  A    between atoms: _550  and  _553
REMARK  209  A    between atoms: _553  and  _554
REMARK  210  A    between atoms: _554  and  _555
REMARK  211  A    between atoms: _555  and  _556
REMARK  212  A    between atoms: _565  and  _567
REMARK  213  A    between atoms: _567  and  _568
REMARK  214  A    between atoms: _567  and  _570
REMARK  215  A    between atoms: _570  and  _571
REMARK  216  A    between atoms: _581  and  _583
REMARK  217  A    between atoms: _583  and  _584
REMARK  218  A    between atoms: _586  and  _588
REMARK  219  A    between atoms: _588  and  _589
REMARK  220  A    between atoms: _588  and  _591
REMARK  221  A    between atoms: _591  and  _592
REMARK  222  A    between atoms: _597  and  _599
REMARK  223  A    between atoms: _599  and  _600
REMARK  224  A    between atoms: _603  and  _605
REMARK  225  A    between atoms: _605  and  _606
REMARK  226  A    between atoms: _605  and  _608
REMARK  227  A    between atoms: _608  and  _609
REMARK  228  A    between atoms: _612  and  _614
REMARK  229  A    between atoms: _614  and  _615
REMARK  230  A    between atoms: _614  and  _617
REMARK  231  A    between atoms: _617  and  _618
REMARK  232  A    between atoms: _624  and  _626
REMARK  233  A    between atoms: _626  and  _627
REMARK  234  A    between atoms: _626  and  _629
REMARK  235  A    between atoms: _629  and  _630
REMARK  236  A    between atoms: _630  and  _631
REMARK  237  A    between atoms: _635  and  _636
REMARK  238  A    between atoms: _641  and  _643
REMARK  239  A    between atoms: _643  and  _644
REMARK  240  A    between atoms: _643  and  _646
REMARK  241  A    between atoms: _646  and  _647
REMARK  242  A    between atoms: _647  and  _648
REMARK  243  A    between atoms: _648  and  _649
REMARK                            x       y       z     vdW  Elec       q    Type
REMARK                         _______ _______ _______ _____ _____    ______ ____
ROOT
ATOM      1  O   HOH     1       1.695   3.235  20.899  0.00  0.00    +0.000 OA
ENDROOT
TORSDOF 0
REMARK  Name = ../refined-set-2016/3k02/3k02_pocket.pdb
REMARK  243 active torsions:
REMARK  status: ('A' for Active; 'I' for Inactive)
REMARK    1  A    between atoms: _1  and  _3
REMARK    2  A    between atoms: _3  and  _4
REMARK    3  A    between atoms: _3  and  _6
REMARK    4  A    between atoms: _6  and  _7
REMARK    5  A    between atoms: _10  and  _12
REMARK    6  A    between atoms: _12  and  _13
REMARK    7  A    between atoms: _12  and  _15
REMARK    8  A    between atoms: _15  and  _16
REMARK    9  A    between atoms: _19  and  _21
REMARK   10  A    between atoms: _21  and  _22
REMARK   11  A    between atoms: _21  and  _24
REMARK   12  A    between atoms: _24  and  _25
REMARK   13  A    between atoms: _27  and  _29
REMARK   14  A    between atoms: _29  and  _30
REMARK   15  A    between atoms: _29  and  _32
REMARK   16  A    between atoms: _32  and  _33
REMARK   17  A    between atoms: _38  and  _40
REMARK   18  A    between atoms: _40  and  _41
REMARK   19  A    between atoms: _40  and  _43
REMARK   20  A    between atoms: _43  and  _44
REMARK   21  A    between atoms: _44  and  _45
REMARK   22  A    between atoms: _48  and  _50
REMARK   23  A    between atoms: _50  and  _51
REMARK   24  A    between atoms: _54  and  _56
REMARK   25  A    between atoms: _56  and  _57
REMARK   26  A    between atoms: _56  and  _59
REMARK   27  A    between atoms: _59  and  _60
REMARK   28  A    between atoms: _60  and  _61
REMARK   29  A    between atoms: _64  and  _66
REMARK   30  A    between atoms: _66  and  _67
REMARK   31  A    between atoms: _66  and  _69
REMARK   32  A    between atoms: _69  and  _70
REMARK   33  A    between atoms: _70  and  _71
REMARK   34  A    between atoms: _71  and  _72
REMARK   35  A    between atoms: _72  and  _73
REMARK   36  A    between atoms: _77  and  _79
REMARK   37  A    between atoms: _79  and  _80
REMARK   38  A    between atoms: _79  and  _82
REMARK   39  A    between atoms: _82  and  _83
REMARK   40  A    between atoms: _88  and  _89
REMARK   41  A    between atoms: _91  and  _93
REMARK   42  A    between atoms: _93  and  _94
REMARK   43  A    between atoms: _93  and  _96
REMARK   44  A    between atoms: _96  and  _97
REMARK   45  A    between atoms: _102  and  _104
REMARK   46  A    between atoms: _104  and  _105
REMARK   47  A    between atoms: _104  and  _107
REMARK   48  A    between atoms: _111  and  _112
REMARK   49  A    between atoms: _117  and  _119
REMARK   50  A    between atoms: _119  and  _120
REMARK   51  A    between atoms: _119  and  _122
REMARK   52  A    between atoms: _122  and  _123
REMARK   53  A    between atoms: _129  and  _131
REMARK   54  A    between atoms: _131  and  _132
REMARK   55  A    between atoms: _134  and  _136
REMARK   56  A    between atoms: _136  and  _137
REMARK   57  A    between atoms: _136  and  _139
REMARK   58  A    between atoms: _139  and  _140
REMARK   59  A    between atoms: _140  and  _141
REMARK   60  A    between atoms: _144  and  _146
REMARK   61  A    between atoms: _146  and  _147
REMARK   62  A    between atoms: _150  and  _152
REMARK   63  A    between atoms: _152  and  _153
REMARK   64  A    between atoms: _152  and  _155
REMARK   65  A    between atoms: _155  and  _156
REMARK   66  A    between atoms: _161  and  _163
REMARK   67  A    between atoms: _163  and  _164
REMARK   68  A    between atoms: _167  and  _169
REMARK   69  A    between atoms: _169  and  _170
REMARK   70  A    between atoms: _169  and  _172
REMARK   71  A    between atoms: _172  and  _173
REMARK   72  A    between atoms: _173  and  _174
REMARK   73  A    between atoms: _174  and  _175
REMARK   74  A    between atoms: _175  and  _176
REMARK   75  A    between atoms: _180  and  _182
REMARK   76  A    between atoms: _182  and  _183
REMARK   77  A    between atoms: _182  and  _185
REMARK   78  A    between atoms: _185  and  _186
REMARK   79  A    between atoms: _186  and  _187
REMARK   80  A    between atoms: _187  and  _188
REMARK   81  A    between atoms: _197  and  _199
REMARK   82  A    between atoms: _199  and  _200
REMARK   83  A    between atoms: _199  and  _202
REMARK   84  A    between atoms: _202  and  _203
REMARK   85  A    between atoms: _203  and  _204
REMARK   86  A    between atoms: _207  and  _209
REMARK   87  A    between atoms: _209  and  _210
REMARK   88  A    between atoms: _209  and  _212
REMARK   89  A    between atoms: _215  and  _217
REMARK   90  A    between atoms: _217  and  _218
REMARK   91  A    between atoms: _221  and  _223
REMARK   92  A    between atoms: _223  and  _224
REMARK   93  A    between atoms: _223  and  _226
REMARK   94  A    between atoms: _226  and  _227
REMARK   95  A    between atoms: _237  and  _239
REMARK   96  A    between atoms: _239  and  _240
REMARK   97  A    between atoms: _239  and  _242
REMARK   98  A    between atoms: _245  and  _247
REMARK   99  A    between atoms: _247  and  _248
REMARK  100  A    between atoms: _247  and  _250
REMARK  101  A    between atoms: _250  and  _251
REMARK  102  A    between atoms: _254  and  _256
REMARK  103  A    between atoms: _256  and  _257
REMARK  104  A    between atoms: _256  and  _259
REMARK  105  A    between atoms: _259  and  _260
REMARK  106  A    between atoms: _266  and  _268
REMARK  107  A    between atoms: _268  and  _269
REMARK  108  A    between atoms: _268  and  _271
REMARK  109  A    between atoms: _271  and  _272
REMARK  110  A    between atoms: _272  and  _273
REMARK  111  A    between atoms: _278  and  _280
REMARK  112  A    between atoms: _280  and  _281
REMARK  113  A    between atoms: _280  and  _283
REMARK  114  A    between atoms: _286  and  _288
REMARK  115  A    between atoms: _288  and  _289
REMARK  116  A    between atoms: _288  and  _291
REMARK  117  A    between atoms: _291  and  _292
REMARK  118  A    between atoms: _295  and  _297
REMARK  119  A    between atoms: _297  and  _298
REMARK  120  A    between atoms: _297  and  _300
REMARK  121  A    between atoms: _300  and  _301
REMARK  122  A    between atoms: _304  and  _306
REMARK  123  A    between atoms: _306  and  _307
REMARK  124  A    between atoms: _306  and  _309
REMARK  125  A    between atoms: _309  and  _310
REMARK  126  A    between atoms: _313  and  _315
REMARK  127  A    between atoms: _315  and  _316
REMARK  128  A    between atoms: _315  and  _318
REMARK  129  A    between atoms: _318  and  _319
REMARK  130  A    between atoms: _322  and  _324
REMARK  131  A    between atoms: _324  and  _325
REMARK  132  A    between atoms: _324  and  _327
REMARK  133  A    between atoms: _327  and  _328
REMARK  134  A    between atoms: _328  and  _329
REMARK  135  A    between atoms: _329  and  _330
REMARK  136  A    between atoms: _339  and  _341
REMARK  137  A    between atoms: _341  and  _342
REMARK  138  A    between atoms: _341  and  _344
REMARK  139  A    between atoms: _344  and  _345
REMARK  140  A    between atoms: _348  and  _350
REMARK  141  A    between atoms: _350  and  _351
REMARK  142  A    between atoms: _350  and  _353
REMARK  143  A    between atoms: _353  and  _354
REMARK  144  A    between atoms: _358  and  _359
REMARK  145  A    between atoms: _364  and  _366
REMARK  146  A    between atoms: _366  and  _367
REMARK  147  A    between atoms: _366  and  _369
REMARK  148  A    between atoms: _369  and  _370
REMARK  149  A    between atoms: _375  and  _376
REMARK  150  A    between atoms: _378  and  _380
REMARK  151  A    between atoms: _380  and  _381
REMARK  152  A    between atoms: _380  and  _383
REMARK  153  A    between atoms: _383  and  _384
REMARK  154  A    between atoms: _394  and  _396
REMARK  155  A    between atoms: _396  and  _397
REMARK  156  A    between atoms: _396  and  _399
REMARK  157  A    between atoms: _399  and  _400
REMARK  158  A    between atoms: _406  and  _408
REMARK  159  A    between atoms: _408  and  _409
REMARK  160  A    between atoms: _408  and  _411
REMARK  161  A    between atoms: _411  and  _412
REMARK  162  A    between atoms: _415  and  _417
REMARK  163  A    between atoms: _417  and  _418
REMARK  164  A    between atoms: _417  and  _420
REMARK  165  A    between atoms: _420  and  _421
REMARK  166  A    between atoms: _431  and  _433
REMARK  167  A    between atoms: _433  and  _434
REMARK  168  A    between atoms: _433  and  _436
REMARK  169  A    between atoms: _436  and  _437
REMARK  170  A    between atoms: _437  and  _438
REMARK  171  A    between atoms: _440  and  _442
REMARK  172  A    between atoms: _442  and  _443
REMARK  173  A    between atoms: _442  and  _445
REMARK  174  A    between atoms: _445  and  _446
REMARK  175  A    between atoms: _451  and  _453
REMARK  176  A    between atoms: _453  and  _454
REMARK  177  A    between atoms: _457  and  _458
REMARK  178  A    between atoms: _463  and  _465
REMARK  179  A    between atoms: _465  and  _466
REMARK  180  A    between atoms: _465  and  _468
REMARK  181  A    between atoms: _468  and  _469
REMARK  182  A    between atoms: _479  and  _481
REMARK  183  A    between atoms: _481  and  _482
REMARK  184  A    between atoms: _486  and  _487
REMARK  185  A    between atoms: _492  and  _494
REMARK  186  A    between atoms: _494  and  _495
REMARK  187  A    between atoms: _494  and  _497
REMARK  188  A    between atoms: _497  and  _498
REMARK  189  A    between atoms: _498  and  _499
REMARK  190  A    between atoms: _504  and  _506
REMARK  191  A    between atoms: _506  and  _507
REMARK  192  A    between atoms: _509  and  _511
REMARK  193  A    between atoms: _511  and  _512
REMARK  194  A    between atoms: _514  and  _516
REMARK  195  A    between atoms: _516  and  _517
REMARK  196  A    between atoms: _516  and  _519
REMARK  197  A    between atoms: _519  and  _520
REMARK  198  A    between atoms: _530  and  _532
REMARK  199  A    between atoms: _532  and  _533
REMARK  200  A    between atoms: _532  and  _535
REMARK  201  A    between atoms: _535  and  _536
REMARK  202  A    between atoms: _539  and  _541
REMARK  203  A    between atoms: _541  and  _542
REMARK  204  A    between atoms: _541  and  _544
REMARK  205  A    between atoms: _544  and  _545
REMARK  206  A    between atoms: _548  and  _550
REMARK  207  A    between atoms: _550  and  _551
REMARK  208  A    between atoms: _550  and  _553
REMARK  209  A    between atoms: _553  and  _554
REMARK  210  A    between atoms: _554  and  _555
REMARK  211  A    between atoms: _555  and  _556
REMARK  212  A    between atoms: _565  and  _567
REMARK  213  A    between atoms: _567  and  _568
REMARK  214  A    between atoms: _567  and  _570
REMARK  215  A    between atoms: _570  and  _571
REMARK  216  A    between atoms: _581  and  _583
REMARK  217  A    between atoms: _583  and  _584
REMARK  218  A    between atoms: _586  and  _588
REMARK  219  A    between atoms: _588  and  _589
REMARK  220  A    between atoms: _588  and  _591
REMARK  221  A    between atoms: _591  and  _592
REMARK  222  A    between atoms: _597  and  _599
REMARK  223  A    between atoms: _599  and  _600
REMARK  224  A    between atoms: _603  and  _605
REMARK  225  A    between atoms: _605  and  _606
REMARK  226  A    between atoms: _605  and  _608
REMARK  227  A    between atoms: _608  and  _609
REMARK  228  A    between atoms: _612  and  _614
REMARK  229  A    between atoms: _614  and  _615
REMARK  230  A    between atoms: _614  and  _617
REMARK  231  A    between atoms: _617  and  _618
REMARK  232  A    between atoms: _624  and  _626
REMARK  233  A    between atoms: _626  and  _627
REMARK  234  A    between atoms: _626  and  _629
REMARK  235  A    between atoms: _629  and  _630
REMARK  236  A    between atoms: _630  and  _631
REMARK  237  A    between atoms: _635  and  _636
REMARK  238  A    between atoms: _641  and  _643
REMARK  239  A    between atoms: _643  and  _644
REMARK  240  A    between atoms: _643  and  _646
REMARK  241  A    between atoms: _646  and  _647
REMARK  242  A    between atoms: _647  and  _648
REMARK  243  A    between atoms: _648  and  _649
REMARK                            x       y       z     vdW  Elec       q    Type
REMARK                         _______ _______ _______ _____ _____    ______ ____
ROOT
ATOM      1  O   HOH     1       3.926  -2.346  11.664  0.00  0.00    +0.000 OA
ENDROOT
TORSDOF 0
REMARK  Name = ../refined-set-2016/3k02/3k02_pocket.pdb
REMARK  243 active torsions:
REMARK  status: ('A' for Active; 'I' for Inactive)
REMARK    1  A    between atoms: _1  and  _3
REMARK    2  A    between atoms: _3  and  _4
REMARK    3  A    between atoms: _3  and  _6
REMARK    4  A    between atoms: _6  and  _7
REMARK    5  A    between atoms: _10  and  _12
REMARK    6  A    between atoms: _12  and  _13
REMARK    7  A    between atoms: _12  and  _15
REMARK    8  A    between atoms: _15  and  _16
REMARK    9  A    between atoms: _19  and  _21
REMARK   10  A    between atoms: _21  and  _22
REMARK   11  A    between atoms: _21  and  _24
REMARK   12  A    between atoms: _24  and  _25
REMARK   13  A    between atoms: _27  and  _29
REMARK   14  A    between atoms: _29  and  _30
REMARK   15  A    between atoms: _29  and  _32
REMARK   16  A    between atoms: _32  and  _33
REMARK   17  A    between atoms: _38  and  _40
REMARK   18  A    between atoms: _40  and  _41
REMARK   19  A    between atoms: _40  and  _43
REMARK   20  A    between atoms: _43  and  _44
REMARK   21  A    between atoms: _44  and  _45
REMARK   22  A    between atoms: _48  and  _50
REMARK   23  A    between atoms: _50  and  _51
REMARK   24  A    between atoms: _54  and  _56
REMARK   25  A    between atoms: _56  and  _57
REMARK   26  A    between atoms: _56  and  _59
REMARK   27  A    between atoms: _59  and  _60
REMARK   28  A    between atoms: _60  and  _61
REMARK   29  A    between atoms: _64  and  _66
REMARK   30  A    between atoms: _66  and  _67
REMARK   31  A    between atoms: _66  and  _69
REMARK   32  A    between atoms: _69  and  _70
REMARK   33  A    between atoms: _70  and  _71
REMARK   34  A    between atoms: _71  and  _72
REMARK   35  A    between atoms: _72  and  _73
REMARK   36  A    between atoms: _77  and  _79
REMARK   37  A    between atoms: _79  and  _80
REMARK   38  A    between atoms: _79  and  _82
REMARK   39  A    between atoms: _82  and  _83
REMARK   40  A    between atoms: _88  and  _89
REMARK   41  A    between atoms: _91  and  _93
REMARK   42  A    between atoms: _93  and  _94
REMARK   43  A    between atoms: _93  and  _96
REMARK   44  A    between atoms: _96  and  _97
REMARK   45  A    between atoms: _102  and  _104
REMARK   46  A    between atoms: _104  and  _105
REMARK   47  A    between atoms: _104  and  _107
REMARK   48  A    between atoms: _111  and  _112
REMARK   49  A    between atoms: _117  and  _119
REMARK   50  A    between atoms: _119  and  _120
REMARK   51  A    between atoms: _119  and  _122
REMARK   52  A    between atoms: _122  and  _123
REMARK   53  A    between atoms: _129  and  _131
REMARK   54  A    between atoms: _131  and  _132
REMARK   55  A    between atoms: _134  and  _136
REMARK   56  A    between atoms: _136  and  _137
REMARK   57  A    between atoms: _136  and  _139
REMARK   58  A    between atoms: _139  and  _140
REMARK   59  A    between atoms: _140  and  _141
REMARK   60  A    between atoms: _144  and  _146
REMARK   61  A    between atoms: _146  and  _147
REMARK   62  A    between atoms: _150  and  _152
REMARK   63  A    between atoms: _152  and  _153
REMARK   64  A    between atoms: _152  and  _155
REMARK   65  A    between atoms: _155  and  _156
REMARK   66  A    between atoms: _161  and  _163
REMARK   67  A    between atoms: _163  and  _164
REMARK   68  A    between atoms: _167  and  _169
REMARK   69  A    between atoms: _169  and  _170
REMARK   70  A    between atoms: _169  and  _172
REMARK   71  A    between atoms: _172  and  _173
REMARK   72  A    between atoms: _173  and  _174
REMARK   73  A    between atoms: _174  and  _175
REMARK   74  A    between atoms: _175  and  _176
REMARK   75  A    between atoms: _180  and  _182
REMARK   76  A    between atoms: _182  and  _183
REMARK   77  A    between atoms: _182  and  _185
REMARK   78  A    between atoms: _185  and  _186
REMARK   79  A    between atoms: _186  and  _187
REMARK   80  A    between atoms: _187  and  _188
REMARK   81  A    between atoms: _197  and  _199
REMARK   82  A    between atoms: _199  and  _200
REMARK   83  A    between atoms: _199  and  _202
REMARK   84  A    between atoms: _202  and  _203
REMARK   85  A    between atoms: _203  and  _204
REMARK   86  A    between atoms: _207  and  _209
REMARK   87  A    between atoms: _209  and  _210
REMARK   88  A    between atoms: _209  and  _212
REMARK   89  A    between atoms: _215  and  _217
REMARK   90  A    between atoms: _217  and  _218
REMARK   91  A    between atoms: _221  and  _223
REMARK   92  A    between atoms: _223  and  _224
REMARK   93  A    between atoms: _223  and  _226
REMARK   94  A    between atoms: _226  and  _227
REMARK   95  A    between atoms: _237  and  _239
REMARK   96  A    between atoms: _239  and  _240
REMARK   97  A    between atoms: _239  and  _242
REMARK   98  A    between atoms: _245  and  _247
REMARK   99  A    between atoms: _247  and  _248
REMARK  100  A    between atoms: _247  and  _250
REMARK  101  A    between atoms: _250  and  _251
REMARK  102  A    between atoms: _254  and  _256
REMARK  103  A    between atoms: _256  and  _257
REMARK  104  A    between atoms: _256  and  _259
REMARK  105  A    between atoms: _259  and  _260
REMARK  106  A    between atoms: _266  and  _268
REMARK  107  A    between atoms: _268  and  _269
REMARK  108  A    between atoms: _268  and  _271
REMARK  109  A    between atoms: _271  and  _272
REMARK  110  A    between atoms: _272  and  _273
REMARK  111  A    between atoms: _278  and  _280
REMARK  112  A    between atoms: _280  and  _281
REMARK  113  A    between atoms: _280  and  _283
REMARK  114  A    between atoms: _286  and  _288
REMARK  115  A    between atoms: _288  and  _289
REMARK  116  A    between atoms: _288  and  _291
REMARK  117  A    between atoms: _291  and  _292
REMARK  118  A    between atoms: _295  and  _297
REMARK  119  A    between atoms: _297  and  _298
REMARK  120  A    between atoms: _297  and  _300
REMARK  121  A    between atoms: _300  and  _301
REMARK  122  A    between atoms: _304  and  _306
REMARK  123  A    between atoms: _306  and  _307
REMARK  124  A    between atoms: _306  and  _309
REMARK  125  A    between atoms: _309  and  _310
REMARK  126  A    between atoms: _313  and  _315
REMARK  127  A    between atoms: _315  and  _316
REMARK  128  A    between atoms: _315  and  _318
REMARK  129  A    between atoms: _318  and  _319
REMARK  130  A    between atoms: _322  and  _324
REMARK  131  A    between atoms: _324  and  _325
REMARK  132  A    between atoms: _324  and  _327
REMARK  133  A    between atoms: _327  and  _328
REMARK  134  A    between atoms: _328  and  _329
REMARK  135  A    between atoms: _329  and  _330
REMARK  136  A    between atoms: _339  and  _341
REMARK  137  A    between atoms: _341  and  _342
REMARK  138  A    between atoms: _341  and  _344
REMARK  139  A    between atoms: _344  and  _345
REMARK  140  A    between atoms: _348  and  _350
REMARK  141  A    between atoms: _350  and  _351
REMARK  142  A    between atoms: _350  and  _353
REMARK  143  A    between atoms: _353  and  _354
REMARK  144  A    between atoms: _358  and  _359
REMARK  145  A    between atoms: _364  and  _366
REMARK  146  A    between atoms: _366  and  _367
REMARK  147  A    between atoms: _366  and  _369
REMARK  148  A    between atoms: _369  and  _370
REMARK  149  A    between atoms: _375  and  _376
REMARK  150  A    between atoms: _378  and  _380
REMARK  151  A    between atoms: _380  and  _381
REMARK  152  A    between atoms: _380  and  _383
REMARK  153  A    between atoms: _383  and  _384
REMARK  154  A    between atoms: _394  and  _396
REMARK  155  A    between atoms: _396  and  _397
REMARK  156  A    between atoms: _396  and  _399
REMARK  157  A    between atoms: _399  and  _400
REMARK  158  A    between atoms: _406  and  _408
REMARK  159  A    between atoms: _408  and  _409
REMARK  160  A    between atoms: _408  and  _411
REMARK  161  A    between atoms: _411  and  _412
REMARK  162  A    between atoms: _415  and  _417
REMARK  163  A    between atoms: _417  and  _418
REMARK  164  A    between atoms: _417  and  _420
REMARK  165  A    between atoms: _420  and  _421
REMARK  166  A    between atoms: _431  and  _433
REMARK  167  A    between atoms: _433  and  _434
REMARK  168  A    between atoms: _433  and  _436
REMARK  169  A    between atoms: _436  and  _437
REMARK  170  A    between atoms: _437  and  _438
REMARK  171  A    between atoms: _440  and  _442
REMARK  172  A    between atoms: _442  and  _443
REMARK  173  A    between atoms: _442  and  _445
REMARK  174  A    between atoms: _445  and  _446
REMARK  175  A    between atoms: _451  and  _453
REMARK  176  A    between atoms: _453  and  _454
REMARK  177  A    between atoms: _457  and  _458
REMARK  178  A    between atoms: _463  and  _465
REMARK  179  A    between atoms: _465  and  _466
REMARK  180  A    between atoms: _465  and  _468
REMARK  181  A    between atoms: _468  and  _469
REMARK  182  A    between atoms: _479  and  _481
REMARK  183  A    between atoms: _481  and  _482
REMARK  184  A    between atoms: _486  and  _487
REMARK  185  A    between atoms: _492  and  _494
REMARK  186  A    between atoms: _494  and  _495
REMARK  187  A    between atoms: _494  and  _497
REMARK  188  A    between atoms: _497  and  _498
REMARK  189  A    between atoms: _498  and  _499
REMARK  190  A    between atoms: _504  and  _506
REMARK  191  A    between atoms: _506  and  _507
REMARK  192  A    between atoms: _509  and  _511
REMARK  193  A    between atoms: _511  and  _512
REMARK  194  A    between atoms: _514  and  _516
REMARK  195  A    between atoms: _516  and  _517
REMARK  196  A    between atoms: _516  and  _519
REMARK  197  A    between atoms: _519  and  _520
REMARK  198  A    between atoms: _530  and  _532
REMARK  199  A    between atoms: _532  and  _533
REMARK  200  A    between atoms: _532  and  _535
REMARK  201  A    between atoms: _535  and  _536
REMARK  202  A    between atoms: _539  and  _541
REMARK  203  A    between atoms: _541  and  _542
REMARK  204  A    between atoms: _541  and  _544
REMARK  205  A    between atoms: _544  and  _545
REMARK  206  A    between atoms: _548  and  _550
REMARK  207  A    between atoms: _550  and  _551
REMARK  208  A    between atoms: _550  and  _553
REMARK  209  A    between atoms: _553  and  _554
REMARK  210  A    between atoms: _554  and  _555
REMARK  211  A    between atoms: _555  and  _556
REMARK  212  A    between atoms: _565  and  _567
REMARK  213  A    between atoms: _567  and  _568
REMARK  214  A    between atoms: _567  and  _570
REMARK  215  A    between atoms: _570  and  _571
REMARK  216  A    between atoms: _581  and  _583
REMARK  217  A    between atoms: _583  and  _584
REMARK  218  A    between atoms: _586  and  _588
REMARK  219  A    between atoms: _588  and  _589
REMARK  220  A    between atoms: _588  and  _591
REMARK  221  A    between atoms: _591  and  _592
REMARK  222  A    between atoms: _597  and  _599
REMARK  223  A    between atoms: _599  and  _600
REMARK  224  A    between atoms: _603  and  _605
REMARK  225  A    between atoms: _605  and  _606
REMARK  226  A    between atoms: _605  and  _608
REMARK  227  A    between atoms: _608  and  _609
REMARK  228  A    between atoms: _612  and  _614
REMARK  229  A    between atoms: _614  and  _615
REMARK  230  A    between atoms: _614  and  _617
REMARK  231  A    between atoms: _617  and  _618
REMARK  232  A    between atoms: _624  and  _626
REMARK  233  A    between atoms: _626  and  _627
REMARK  234  A    between atoms: _626  and  _629
REMARK  235  A    between atoms: _629  and  _630
REMARK  236  A    between atoms: _630  and  _631
REMARK  237  A    between atoms: _635  and  _636
REMARK  238  A    between atoms: _641  and  _643
REMARK  239  A    between atoms: _643  and  _644
REMARK  240  A    between atoms: _643  and  _646
REMARK  241  A    between atoms: _646  and  _647
REMARK  242  A    between atoms: _647  and  _648
REMARK  243  A    between atoms: _648  and  _649
REMARK                            x       y       z     vdW  Elec       q    Type
REMARK                         _______ _______ _______ _____ _____    ______ ____
ROOT
ATOM      1  O   HOH     1       0.065   1.351  19.775  0.00  0.00    +0.000 OA
ENDROOT
TORSDOF 0
REMARK  Name = ../refined-set-2016/3k02/3k02_pocket.pdb
REMARK  243 active torsions:
REMARK  status: ('A' for Active; 'I' for Inactive)
REMARK    1  A    between atoms: _1  and  _3
REMARK    2  A    between atoms: _3  and  _4
REMARK    3  A    between atoms: _3  and  _6
REMARK    4  A    between atoms: _6  and  _7
REMARK    5  A    between atoms: _10  and  _12
REMARK    6  A    between atoms: _12  and  _13
REMARK    7  A    between atoms: _12  and  _15
REMARK    8  A    between atoms: _15  and  _16
REMARK    9  A    between atoms: _19  and  _21
REMARK   10  A    between atoms: _21  and  _22
REMARK   11  A    between atoms: _21  and  _24
REMARK   12  A    between atoms: _24  and  _25
REMARK   13  A    between atoms: _27  and  _29
REMARK   14  A    between atoms: _29  and  _30
REMARK   15  A    between atoms: _29  and  _32
REMARK   16  A    between atoms: _32  and  _33
REMARK   17  A    between atoms: _38  and  _40
REMARK   18  A    between atoms: _40  and  _41
REMARK   19  A    between atoms: _40  and  _43
REMARK   20  A    between atoms: _43  and  _44
REMARK   21  A    between atoms: _44  and  _45
REMARK   22  A    between atoms: _48  and  _50
REMARK   23  A    between atoms: _50  and  _51
REMARK   24  A    between atoms: _54  and  _56
REMARK   25  A    between atoms: _56  and  _57
REMARK   26  A    between atoms: _56  and  _59
REMARK   27  A    between atoms: _59  and  _60
REMARK   28  A    between atoms: _60  and  _61
REMARK   29  A    between atoms: _64  and  _66
REMARK   30  A    between atoms: _66  and  _67
REMARK   31  A    between atoms: _66  and  _69
REMARK   32  A    between atoms: _69  and  _70
REMARK   33  A    between atoms: _70  and  _71
REMARK   34  A    between atoms: _71  and  _72
REMARK   35  A    between atoms: _72  and  _73
REMARK   36  A    between atoms: _77  and  _79
REMARK   37  A    between atoms: _79  and  _80
REMARK   38  A    between atoms: _79  and  _82
REMARK   39  A    between atoms: _82  and  _83
REMARK   40  A    between atoms: _88  and  _89
REMARK   41  A    between atoms: _91  and  _93
REMARK   42  A    between atoms: _93  and  _94
REMARK   43  A    between atoms: _93  and  _96
REMARK   44  A    between atoms: _96  and  _97
REMARK   45  A    between atoms: _102  and  _104
REMARK   46  A    between atoms: _104  and  _105
REMARK   47  A    between atoms: _104  and  _107
REMARK   48  A    between atoms: _111  and  _112
REMARK   49  A    between atoms: _117  and  _119
REMARK   50  A    between atoms: _119  and  _120
REMARK   51  A    between atoms: _119  and  _122
REMARK   52  A    between atoms: _122  and  _123
REMARK   53  A    between atoms: _129  and  _131
REMARK   54  A    between atoms: _131  and  _132
REMARK   55  A    between atoms: _134  and  _136
REMARK   56  A    between atoms: _136  and  _137
REMARK   57  A    between atoms: _136  and  _139
REMARK   58  A    between atoms: _139  and  _140
REMARK   59  A    between atoms: _140  and  _141
REMARK   60  A    between atoms: _144  and  _146
REMARK   61  A    between atoms: _146  and  _147
REMARK   62  A    between atoms: _150  and  _152
REMARK   63  A    between atoms: _152  and  _153
REMARK   64  A    between atoms: _152  and  _155
REMARK   65  A    between atoms: _155  and  _156
REMARK   66  A    between atoms: _161  and  _163
REMARK   67  A    between atoms: _163  and  _164
REMARK   68  A    between atoms: _167  and  _169
REMARK   69  A    between atoms: _169  and  _170
REMARK   70  A    between atoms: _169  and  _172
REMARK   71  A    between atoms: _172  and  _173
REMARK   72  A    between atoms: _173  and  _174
REMARK   73  A    between atoms: _174  and  _175
REMARK   74  A    between atoms: _175  and  _176
REMARK   75  A    between atoms: _180  and  _182
REMARK   76  A    between atoms: _182  and  _183
REMARK   77  A    between atoms: _182  and  _185
REMARK   78  A    between atoms: _185  and  _186
REMARK   79  A    between atoms: _186  and  _187
REMARK   80  A    between atoms: _187  and  _188
REMARK   81  A    between atoms: _197  and  _199
REMARK   82  A    between atoms: _199  and  _200
REMARK   83  A    between atoms: _199  and  _202
REMARK   84  A    between atoms: _202  and  _203
REMARK   85  A    between atoms: _203  and  _204
REMARK   86  A    between atoms: _207  and  _209
REMARK   87  A    between atoms: _209  and  _210
REMARK   88  A    between atoms: _209  and  _212
REMARK   89  A    between atoms: _215  and  _217
REMARK   90  A    between atoms: _217  and  _218
REMARK   91  A    between atoms: _221  and  _223
REMARK   92  A    between atoms: _223  and  _224
REMARK   93  A    between atoms: _223  and  _226
REMARK   94  A    between atoms: _226  and  _227
REMARK   95  A    between atoms: _237  and  _239
REMARK   96  A    between atoms: _239  and  _240
REMARK   97  A    between atoms: _239  and  _242
REMARK   98  A    between atoms: _245  and  _247
REMARK   99  A    between atoms: _247  and  _248
REMARK  100  A    between atoms: _247  and  _250
REMARK  101  A    between atoms: _250  and  _251
REMARK  102  A    between atoms: _254  and  _256
REMARK  103  A    between atoms: _256  and  _257
REMARK  104  A    between atoms: _256  and  _259
REMARK  105  A    between atoms: _259  and  _260
REMARK  106  A    between atoms: _266  and  _268
REMARK  107  A    between atoms: _268  and  _269
REMARK  108  A    between atoms: _268  and  _271
REMARK  109  A    between atoms: _271  and  _272
REMARK  110  A    between atoms: _272  and  _273
REMARK  111  A    between atoms: _278  and  _280
REMARK  112  A    between atoms: _280  and  _281
REMARK  113  A    between atoms: _280  and  _283
REMARK  114  A    between atoms: _286  and  _288
REMARK  115  A    between atoms: _288  and  _289
REMARK  116  A    between atoms: _288  and  _291
REMARK  117  A    between atoms: _291  and  _292
REMARK  118  A    between atoms: _295  and  _297
REMARK  119  A    between atoms: _297  and  _298
REMARK  120  A    between atoms: _297  and  _300
REMARK  121  A    between atoms: _300  and  _301
REMARK  122  A    between atoms: _304  and  _306
REMARK  123  A    between atoms: _306  and  _307
REMARK  124  A    between atoms: _306  and  _309
REMARK  125  A    between atoms: _309  and  _310
REMARK  126  A    between atoms: _313  and  _315
REMARK  127  A    between atoms: _315  and  _316
REMARK  128  A    between atoms: _315  and  _318
REMARK  129  A    between atoms: _318  and  _319
REMARK  130  A    between atoms: _322  and  _324
REMARK  131  A    between atoms: _324  and  _325
REMARK  132  A    between atoms: _324  and  _327
REMARK  133  A    between atoms: _327  and  _328
REMARK  134  A    between atoms: _328  and  _329
REMARK  135  A    between atoms: _329  and  _330
REMARK  136  A    between atoms: _339  and  _341
REMARK  137  A    between atoms: _341  and  _342
REMARK  138  A    between atoms: _341  and  _344
REMARK  139  A    between atoms: _344  and  _345
REMARK  140  A    between atoms: _348  and  _350
REMARK  141  A    between atoms: _350  and  _351
REMARK  142  A    between atoms: _350  and  _353
REMARK  143  A    between atoms: _353  and  _354
REMARK  144  A    between atoms: _358  and  _359
REMARK  145  A    between atoms: _364  and  _366
REMARK  146  A    between atoms: _366  and  _367
REMARK  147  A    between atoms: _366  and  _369
REMARK  148  A    between atoms: _369  and  _370
REMARK  149  A    between atoms: _375  and  _376
REMARK  150  A    between atoms: _378  and  _380
REMARK  151  A    between atoms: _380  and  _381
REMARK  152  A    between atoms: _380  and  _383
REMARK  153  A    between atoms: _383  and  _384
REMARK  154  A    between atoms: _394  and  _396
REMARK  155  A    between atoms: _396  and  _397
REMARK  156  A    between atoms: _396  and  _399
REMARK  157  A    between atoms: _399  and  _400
REMARK  158  A    between atoms: _406  and  _408
REMARK  159  A    between atoms: _408  and  _409
REMARK  160  A    between atoms: _408  and  _411
REMARK  161  A    between atoms: _411  and  _412
REMARK  162  A    between atoms: _415  and  _417
REMARK  163  A    between atoms: _417  and  _418
REMARK  164  A    between atoms: _417  and  _420
REMARK  165  A    between atoms: _420  and  _421
REMARK  166  A    between atoms: _431  and  _433
REMARK  167  A    between atoms: _433  and  _434
REMARK  168  A    between atoms: _433  and  _436
REMARK  169  A    between atoms: _436  and  _437
REMARK  170  A    between atoms: _437  and  _438
REMARK  171  A    between atoms: _440  and  _442
REMARK  172  A    between atoms: _442  and  _443
REMARK  173  A    between atoms: _442  and  _445
REMARK  174  A    between atoms: _445  and  _446
REMARK  175  A    between atoms: _451  and  _453
REMARK  176  A    between atoms: _453  and  _454
REMARK  177  A    between atoms: _457  and  _458
REMARK  178  A    between atoms: _463  and  _465
REMARK  179  A    between atoms: _465  and  _466
REMARK  180  A    between atoms: _465  and  _468
REMARK  181  A    between atoms: _468  and  _469
REMARK  182  A    between atoms: _479  and  _481
REMARK  183  A    between atoms: _481  and  _482
REMARK  184  A    between atoms: _486  and  _487
REMARK  185  A    between atoms: _492  and  _494
REMARK  186  A    between atoms: _494  and  _495
REMARK  187  A    between atoms: _494  and  _497
REMARK  188  A    between atoms: _497  and  _498
REMARK  189  A    between atoms: _498  and  _499
REMARK  190  A    between atoms: _504  and  _506
REMARK  191  A    between atoms: _506  and  _507
REMARK  192  A    between atoms: _509  and  _511
REMARK  193  A    between atoms: _511  and  _512
REMARK  194  A    between atoms: _514  and  _516
REMARK  195  A    between atoms: _516  and  _517
REMARK  196  A    between atoms: _516  and  _519
REMARK  197  A    between atoms: _519  and  _520
REMARK  198  A    between atoms: _530  and  _532
REMARK  199  A    between atoms: _532  and  _533
REMARK  200  A    between atoms: _532  and  _535
REMARK  201  A    between atoms: _535  and  _536
REMARK  202  A    between atoms: _539  and  _541
REMARK  203  A    between atoms: _541  and  _542
REMARK  204  A    between atoms: _541  and  _544
REMARK  205  A    between atoms: _544  and  _545
REMARK  206  A    between atoms: _548  and  _550
REMARK  207  A    between atoms: _550  and  _551
REMARK  208  A    between atoms: _550  and  _553
REMARK  209  A    between atoms: _553  and  _554
REMARK  210  A    between atoms: _554  and  _555
REMARK  211  A    between atoms: _555  and  _556
REMARK  212  A    between atoms: _565  and  _567
REMARK  213  A    between atoms: _567  and  _568
REMARK  214  A    between atoms: _567  and  _570
REMARK  215  A    between atoms: _570  and  _571
REMARK  216  A    between atoms: _581  and  _583
REMARK  217  A    between atoms: _583  and  _584
REMARK  218  A    between atoms: _586  and  _588
REMARK  219  A    between atoms: _588  and  _589
REMARK  220  A    between atoms: _588  and  _591
REMARK  221  A    between atoms: _591  and  _592
REMARK  222  A    between atoms: _597  and  _599
REMARK  223  A    between atoms: _599  and  _600
REMARK  224  A    between atoms: _603  and  _605
REMARK  225  A    between atoms: _605  and  _606
REMARK  226  A    between atoms: _605  and  _608
REMARK  227  A    between atoms: _608  and  _609
REMARK  228  A    between atoms: _612  and  _614
REMARK  229  A    between atoms: _614  and  _615
REMARK  230  A    between atoms: _614  and  _617
REMARK  231  A    between atoms: _617  and  _618
REMARK  232  A    between atoms: _624  and  _626
REMARK  233  A    between atoms: _626  and  _627
REMARK  234  A    between atoms: _626  and  _629
REMARK  235  A    between atoms: _629  and  _630
REMARK  236  A    between atoms: _630  and  _631
REMARK  237  A    between atoms: _635  and  _636
REMARK  238  A    between atoms: _641  and  _643
REMARK  239  A    between atoms: _643  and  _644
REMARK  240  A    between atoms: _643  and  _646
REMARK  241  A    between atoms: _646  and  _647
REMARK  242  A    between atoms: _647  and  _648
REMARK  243  A    between atoms: _648  and  _649
REMARK                            x       y       z     vdW  Elec       q    Type
REMARK                         _______ _______ _______ _____ _____    ______ ____
ROOT
ATOM      1  O   HOH     1      -7.553 -15.373  24.499  0.00  0.00    +0.000 OA
ENDROOT
TORSDOF 0
REMARK  Name = ../refined-set-2016/3k02/3k02_pocket.pdb
REMARK  243 active torsions:
REMARK  status: ('A' for Active; 'I' for Inactive)
REMARK    1  A    between atoms: _1  and  _3
REMARK    2  A    between atoms: _3  and  _4
REMARK    3  A    between atoms: _3  and  _6
REMARK    4  A    between atoms: _6  and  _7
REMARK    5  A    between atoms: _10  and  _12
REMARK    6  A    between atoms: _12  and  _13
REMARK    7  A    between atoms: _12  and  _15
REMARK    8  A    between atoms: _15  and  _16
REMARK    9  A    between atoms: _19  and  _21
REMARK   10  A    between atoms: _21  and  _22
REMARK   11  A    between atoms: _21  and  _24
REMARK   12  A    between atoms: _24  and  _25
REMARK   13  A    between atoms: _27  and  _29
REMARK   14  A    between atoms: _29  and  _30
REMARK   15  A    between atoms: _29  and  _32
REMARK   16  A    between atoms: _32  and  _33
REMARK   17  A    between atoms: _38  and  _40
REMARK   18  A    between atoms: _40  and  _41
REMARK   19  A    between atoms: _40  and  _43
REMARK   20  A    between atoms: _43  and  _44
REMARK   21  A    between atoms: _44  and  _45
REMARK   22  A    between atoms: _48  and  _50
REMARK   23  A    between atoms: _50  and  _51
REMARK   24  A    between atoms: _54  and  _56
REMARK   25  A    between atoms: _56  and  _57
REMARK   26  A    between atoms: _56  and  _59
REMARK   27  A    between atoms: _59  and  _60
REMARK   28  A    between atoms: _60  and  _61
REMARK   29  A    between atoms: _64  and  _66
REMARK   30  A    between atoms: _66  and  _67
REMARK   31  A    between atoms: _66  and  _69
REMARK   32  A    between atoms: _69  and  _70
REMARK   33  A    between atoms: _70  and  _71
REMARK   34  A    between atoms: _71  and  _72
REMARK   35  A    between atoms: _72  and  _73
REMARK   36  A    between atoms: _77  and  _79
REMARK   37  A    between atoms: _79  and  _80
REMARK   38  A    between atoms: _79  and  _82
REMARK   39  A    between atoms: _82  and  _83
REMARK   40  A    between atoms: _88  and  _89
REMARK   41  A    between atoms: _91  and  _93
REMARK   42  A    between atoms: _93  and  _94
REMARK   43  A    between atoms: _93  and  _96
REMARK   44  A    between atoms: _96  and  _97
REMARK   45  A    between atoms: _102  and  _104
REMARK   46  A    between atoms: _104  and  _105
REMARK   47  A    between atoms: _104  and  _107
REMARK   48  A    between atoms: _111  and  _112
REMARK   49  A    between atoms: _117  and  _119
REMARK   50  A    between atoms: _119  and  _120
REMARK   51  A    between atoms: _119  and  _122
REMARK   52  A    between atoms: _122  and  _123
REMARK   53  A    between atoms: _129  and  _131
REMARK   54  A    between atoms: _131  and  _132
REMARK   55  A    between atoms: _134  and  _136
REMARK   56  A    between atoms: _136  and  _137
REMARK   57  A    between atoms: _136  and  _139
REMARK   58  A    between atoms: _139  and  _140
REMARK   59  A    between atoms: _140  and  _141
REMARK   60  A    between atoms: _144  and  _146
REMARK   61  A    between atoms: _146  and  _147
REMARK   62  A    between atoms: _150  and  _152
REMARK   63  A    between atoms: _152  and  _153
REMARK   64  A    between atoms: _152  and  _155
REMARK   65  A    between atoms: _155  and  _156
REMARK   66  A    between atoms: _161  and  _163
REMARK   67  A    between atoms: _163  and  _164
REMARK   68  A    between atoms: _167  and  _169
REMARK   69  A    between atoms: _169  and  _170
REMARK   70  A    between atoms: _169  and  _172
REMARK   71  A    between atoms: _172  and  _173
REMARK   72  A    between atoms: _173  and  _174
REMARK   73  A    between atoms: _174  and  _175
REMARK   74  A    between atoms: _175  and  _176
REMARK   75  A    between atoms: _180  and  _182
REMARK   76  A    between atoms: _182  and  _183
REMARK   77  A    between atoms: _182  and  _185
REMARK   78  A    between atoms: _185  and  _186
REMARK   79  A    between atoms: _186  and  _187
REMARK   80  A    between atoms: _187  and  _188
REMARK   81  A    between atoms: _197  and  _199
REMARK   82  A    between atoms: _199  and  _200
REMARK   83  A    between atoms: _199  and  _202
REMARK   84  A    between atoms: _202  and  _203
REMARK   85  A    between atoms: _203  and  _204
REMARK   86  A    between atoms: _207  and  _209
REMARK   87  A    between atoms: _209  and  _210
REMARK   88  A    between atoms: _209  and  _212
REMARK   89  A    between atoms: _215  and  _217
REMARK   90  A    between atoms: _217  and  _218
REMARK   91  A    between atoms: _221  and  _223
REMARK   92  A    between atoms: _223  and  _224
REMARK   93  A    between atoms: _223  and  _226
REMARK   94  A    between atoms: _226  and  _227
REMARK   95  A    between atoms: _237  and  _239
REMARK   96  A    between atoms: _239  and  _240
REMARK   97  A    between atoms: _239  and  _242
REMARK   98  A    between atoms: _245  and  _247
REMARK   99  A    between atoms: _247  and  _248
REMARK  100  A    between atoms: _247  and  _250
REMARK  101  A    between atoms: _250  and  _251
REMARK  102  A    between atoms: _254  and  _256
REMARK  103  A    between atoms: _256  and  _257
REMARK  104  A    between atoms: _256  and  _259
REMARK  105  A    between atoms: _259  and  _260
REMARK  106  A    between atoms: _266  and  _268
REMARK  107  A    between atoms: _268  and  _269
REMARK  108  A    between atoms: _268  and  _271
REMARK  109  A    between atoms: _271  and  _272
REMARK  110  A    between atoms: _272  and  _273
REMARK  111  A    between atoms: _278  and  _280
REMARK  112  A    between atoms: _280  and  _281
REMARK  113  A    between atoms: _280  and  _283
REMARK  114  A    between atoms: _286  and  _288
REMARK  115  A    between atoms: _288  and  _289
REMARK  116  A    between atoms: _288  and  _291
REMARK  117  A    between atoms: _291  and  _292
REMARK  118  A    between atoms: _295  and  _297
REMARK  119  A    between atoms: _297  and  _298
REMARK  120  A    between atoms: _297  and  _300
REMARK  121  A    between atoms: _300  and  _301
REMARK  122  A    between atoms: _304  and  _306
REMARK  123  A    between atoms: _306  and  _307
REMARK  124  A    between atoms: _306  and  _309
REMARK  125  A    between atoms: _309  and  _310
REMARK  126  A    between atoms: _313  and  _315
REMARK  127  A    between atoms: _315  and  _316
REMARK  128  A    between atoms: _315  and  _318
REMARK  129  A    between atoms: _318  and  _319
REMARK  130  A    between atoms: _322  and  _324
REMARK  131  A    between atoms: _324  and  _325
REMARK  132  A    between atoms: _324  and  _327
REMARK  133  A    between atoms: _327  and  _328
REMARK  134  A    between atoms: _328  and  _329
REMARK  135  A    between atoms: _329  and  _330
REMARK  136  A    between atoms: _339  and  _341
REMARK  137  A    between atoms: _341  and  _342
REMARK  138  A    between atoms: _341  and  _344
REMARK  139  A    between atoms: _344  and  _345
REMARK  140  A    between atoms: _348  and  _350
REMARK  141  A    between atoms: _350  and  _351
REMARK  142  A    between atoms: _350  and  _353
REMARK  143  A    between atoms: _353  and  _354
REMARK  144  A    between atoms: _358  and  _359
REMARK  145  A    between atoms: _364  and  _366
REMARK  146  A    between atoms: _366  and  _367
REMARK  147  A    between atoms: _366  and  _369
REMARK  148  A    between atoms: _369  and  _370
REMARK  149  A    between atoms: _375  and  _376
REMARK  150  A    between atoms: _378  and  _380
REMARK  151  A    between atoms: _380  and  _381
REMARK  152  A    between atoms: _380  and  _383
REMARK  153  A    between atoms: _383  and  _384
REMARK  154  A    between atoms: _394  and  _396
REMARK  155  A    between atoms: _396  and  _397
REMARK  156  A    between atoms: _396  and  _399
REMARK  157  A    between atoms: _399  and  _400
REMARK  158  A    between atoms: _406  and  _408
REMARK  159  A    between atoms: _408  and  _409
REMARK  160  A    between atoms: _408  and  _411
REMARK  161  A    between atoms: _411  and  _412
REMARK  162  A    between atoms: _415  and  _417
REMARK  163  A    between atoms: _417  and  _418
REMARK  164  A    between atoms: _417  and  _420
REMARK  165  A    between atoms: _420  and  _421
REMARK  166  A    between atoms: _431  and  _433
REMARK  167  A    between atoms: _433  and  _434
REMARK  168  A    between atoms: _433  and  _436
REMARK  169  A    between atoms: _436  and  _437
REMARK  170  A    between atoms: _437  and  _438
REMARK  171  A    between atoms: _440  and  _442
REMARK  172  A    between atoms: _442  and  _443
REMARK  173  A    between atoms: _442  and  _445
REMARK  174  A    between atoms: _445  and  _446
REMARK  175  A    between atoms: _451  and  _453
REMARK  176  A    between atoms: _453  and  _454
REMARK  177  A    between atoms: _457  and  _458
REMARK  178  A    between atoms: _463  and  _465
REMARK  179  A    between atoms: _465  and  _466
REMARK  180  A    between atoms: _465  and  _468
REMARK  181  A    between atoms: _468  and  _469
REMARK  182  A    between atoms: _479  and  _481
REMARK  183  A    between atoms: _481  and  _482
REMARK  184  A    between atoms: _486  and  _487
REMARK  185  A    between atoms: _492  and  _494
REMARK  186  A    between atoms: _494  and  _495
REMARK  187  A    between atoms: _494  and  _497
REMARK  188  A    between atoms: _497  and  _498
REMARK  189  A    between atoms: _498  and  _499
REMARK  190  A    between atoms: _504  and  _506
REMARK  191  A    between atoms: _506  and  _507
REMARK  192  A    between atoms: _509  and  _511
REMARK  193  A    between atoms: _511  and  _512
REMARK  194  A    between atoms: _514  and  _516
REMARK  195  A    between atoms: _516  and  _517
REMARK  196  A    between atoms: _516  and  _519
REMARK  197  A    between atoms: _519  and  _520
REMARK  198  A    between atoms: _530  and  _532
REMARK  199  A    between atoms: _532  and  _533
REMARK  200  A    between atoms: _532  and  _535
REMARK  201  A    between atoms: _535  and  _536
REMARK  202  A    between atoms: _539  and  _541
REMARK  203  A    between atoms: _541  and  _542
REMARK  204  A    between atoms: _541  and  _544
REMARK  205  A    between atoms: _544  and  _545
REMARK  206  A    between atoms: _548  and  _550
REMARK  207  A    between atoms: _550  and  _551
REMARK  208  A    between atoms: _550  and  _553
REMARK  209  A    between atoms: _553  and  _554
REMARK  210  A    between atoms: _554  and  _555
REMARK  211  A    between atoms: _555  and  _556
REMARK  212  A    between atoms: _565  and  _567
REMARK  213  A    between atoms: _567  and  _568
REMARK  214  A    between atoms: _567  and  _570
REMARK  215  A    between atoms: _570  and  _571
REMARK  216  A    between atoms: _581  and  _583
REMARK  217  A    between atoms: _583  and  _584
REMARK  218  A    between atoms: _586  and  _588
REMARK  219  A    between atoms: _588  and  _589
REMARK  220  A    between atoms: _588  and  _591
REMARK  221  A    between atoms: _591  and  _592
REMARK  222  A    between atoms: _597  and  _599
REMARK  223  A    between atoms: _599  and  _600
REMARK  224  A    between atoms: _603  and  _605
REMARK  225  A    between atoms: _605  and  _606
REMARK  226  A    between atoms: _605  and  _608
REMARK  227  A    between atoms: _608  and  _609
REMARK  228  A    between atoms: _612  and  _614
REMARK  229  A    between atoms: _614  and  _615
REMARK  230  A    between atoms: _614  and  _617
REMARK  231  A    between atoms: _617  and  _618
REMARK  232  A    between atoms: _624  and  _626
REMARK  233  A    between atoms: _626  and  _627
REMARK  234  A    between atoms: _626  and  _629
REMARK  235  A    between atoms: _629  and  _630
REMARK  236  A    between atoms: _630  and  _631
REMARK  237  A    between atoms: _635  and  _636
REMARK  238  A    between atoms: _641  and  _643
REMARK  239  A    between atoms: _643  and  _644
REMARK  240  A    between atoms: _643  and  _646
REMARK  241  A    between atoms: _646  and  _647
REMARK  242  A    between atoms: _647  and  _648
REMARK  243  A    between atoms: _648  and  _649
REMARK                            x       y       z     vdW  Elec       q    Type
REMARK                         _______ _______ _______ _____ _____    ______ ____
ROOT
ATOM      1  O   HOH     1      -5.203 -12.477  15.857  0.00  0.00    +0.000 OA
ENDROOT
TORSDOF 0
REMARK  Name = ../refined-set-2016/3k02/3k02_pocket.pdb
REMARK  243 active torsions:
REMARK  status: ('A' for Active; 'I' for Inactive)
REMARK    1  A    between atoms: _1  and  _3
REMARK    2  A    between atoms: _3  and  _4
REMARK    3  A    between atoms: _3  and  _6
REMARK    4  A    between atoms: _6  and  _7
REMARK    5  A    between atoms: _10  and  _12
REMARK    6  A    between atoms: _12  and  _13
REMARK    7  A    between atoms: _12  and  _15
REMARK    8  A    between atoms: _15  and  _16
REMARK    9  A    between atoms: _19  and  _21
REMARK   10  A    between atoms: _21  and  _22
REMARK   11  A    between atoms: _21  and  _24
REMARK   12  A    between atoms: _24  and  _25
REMARK   13  A    between atoms: _27  and  _29
REMARK   14  A    between atoms: _29  and  _30
REMARK   15  A    between atoms: _29  and  _32
REMARK   16  A    between atoms: _32  and  _33
REMARK   17  A    between atoms: _38  and  _40
REMARK   18  A    between atoms: _40  and  _41
REMARK   19  A    between atoms: _40  and  _43
REMARK   20  A    between atoms: _43  and  _44
REMARK   21  A    between atoms: _44  and  _45
REMARK   22  A    between atoms: _48  and  _50
REMARK   23  A    between atoms: _50  and  _51
REMARK   24  A    between atoms: _54  and  _56
REMARK   25  A    between atoms: _56  and  _57
REMARK   26  A    between atoms: _56  and  _59
REMARK   27  A    between atoms: _59  and  _60
REMARK   28  A    between atoms: _60  and  _61
REMARK   29  A    between atoms: _64  and  _66
REMARK   30  A    between atoms: _66  and  _67
REMARK   31  A    between atoms: _66  and  _69
REMARK   32  A    between atoms: _69  and  _70
REMARK   33  A    between atoms: _70  and  _71
REMARK   34  A    between atoms: _71  and  _72
REMARK   35  A    between atoms: _72  and  _73
REMARK   36  A    between atoms: _77  and  _79
REMARK   37  A    between atoms: _79  and  _80
REMARK   38  A    between atoms: _79  and  _82
REMARK   39  A    between atoms: _82  and  _83
REMARK   40  A    between atoms: _88  and  _89
REMARK   41  A    between atoms: _91  and  _93
REMARK   42  A    between atoms: _93  and  _94
REMARK   43  A    between atoms: _93  and  _96
REMARK   44  A    between atoms: _96  and  _97
REMARK   45  A    between atoms: _102  and  _104
REMARK   46  A    between atoms: _104  and  _105
REMARK   47  A    between atoms: _104  and  _107
REMARK   48  A    between atoms: _111  and  _112
REMARK   49  A    between atoms: _117  and  _119
REMARK   50  A    between atoms: _119  and  _120
REMARK   51  A    between atoms: _119  and  _122
REMARK   52  A    between atoms: _122  and  _123
REMARK   53  A    between atoms: _129  and  _131
REMARK   54  A    between atoms: _131  and  _132
REMARK   55  A    between atoms: _134  and  _136
REMARK   56  A    between atoms: _136  and  _137
REMARK   57  A    between atoms: _136  and  _139
REMARK   58  A    between atoms: _139  and  _140
REMARK   59  A    between atoms: _140  and  _141
REMARK   60  A    between atoms: _144  and  _146
REMARK   61  A    between atoms: _146  and  _147
REMARK   62  A    between atoms: _150  and  _152
REMARK   63  A    between atoms: _152  and  _153
REMARK   64  A    between atoms: _152  and  _155
REMARK   65  A    between atoms: _155  and  _156
REMARK   66  A    between atoms: _161  and  _163
REMARK   67  A    between atoms: _163  and  _164
REMARK   68  A    between atoms: _167  and  _169
REMARK   69  A    between atoms: _169  and  _170
REMARK   70  A    between atoms: _169  and  _172
REMARK   71  A    between atoms: _172  and  _173
REMARK   72  A    between atoms: _173  and  _174
REMARK   73  A    between atoms: _174  and  _175
REMARK   74  A    between atoms: _175  and  _176
REMARK   75  A    between atoms: _180  and  _182
REMARK   76  A    between atoms: _182  and  _183
REMARK   77  A    between atoms: _182  and  _185
REMARK   78  A    between atoms: _185  and  _186
REMARK   79  A    between atoms: _186  and  _187
REMARK   80  A    between atoms: _187  and  _188
REMARK   81  A    between atoms: _197  and  _199
REMARK   82  A    between atoms: _199  and  _200
REMARK   83  A    between atoms: _199  and  _202
REMARK   84  A    between atoms: _202  and  _203
REMARK   85  A    between atoms: _203  and  _204
REMARK   86  A    between atoms: _207  and  _209
REMARK   87  A    between atoms: _209  and  _210
REMARK   88  A    between atoms: _209  and  _212
REMARK   89  A    between atoms: _215  and  _217
REMARK   90  A    between atoms: _217  and  _218
REMARK   91  A    between atoms: _221  and  _223
REMARK   92  A    between atoms: _223  and  _224
REMARK   93  A    between atoms: _223  and  _226
REMARK   94  A    between atoms: _226  and  _227
REMARK   95  A    between atoms: _237  and  _239
REMARK   96  A    between atoms: _239  and  _240
REMARK   97  A    between atoms: _239  and  _242
REMARK   98  A    between atoms: _245  and  _247
REMARK   99  A    between atoms: _247  and  _248
REMARK  100  A    between atoms: _247  and  _250
REMARK  101  A    between atoms: _250  and  _251
REMARK  102  A    between atoms: _254  and  _256
REMARK  103  A    between atoms: _256  and  _257
REMARK  104  A    between atoms: _256  and  _259
REMARK  105  A    between atoms: _259  and  _260
REMARK  106  A    between atoms: _266  and  _268
REMARK  107  A    between atoms: _268  and  _269
REMARK  108  A    between atoms: _268  and  _271
REMARK  109  A    between atoms: _271  and  _272
REMARK  110  A    between atoms: _272  and  _273
REMARK  111  A    between atoms: _278  and  _280
REMARK  112  A    between atoms: _280  and  _281
REMARK  113  A    between atoms: _280  and  _283
REMARK  114  A    between atoms: _286  and  _288
REMARK  115  A    between atoms: _288  and  _289
REMARK  116  A    between atoms: _288  and  _291
REMARK  117  A    between atoms: _291  and  _292
REMARK  118  A    between atoms: _295  and  _297
REMARK  119  A    between atoms: _297  and  _298
REMARK  120  A    between atoms: _297  and  _300
REMARK  121  A    between atoms: _300  and  _301
REMARK  122  A    between atoms: _304  and  _306
REMARK  123  A    between atoms: _306  and  _307
REMARK  124  A    between atoms: _306  and  _309
REMARK  125  A    between atoms: _309  and  _310
REMARK  126  A    between atoms: _313  and  _315
REMARK  127  A    between atoms: _315  and  _316
REMARK  128  A    between atoms: _315  and  _318
REMARK  129  A    between atoms: _318  and  _319
REMARK  130  A    between atoms: _322  and  _324
REMARK  131  A    between atoms: _324  and  _325
REMARK  132  A    between atoms: _324  and  _327
REMARK  133  A    between atoms: _327  and  _328
REMARK  134  A    between atoms: _328  and  _329
REMARK  135  A    between atoms: _329  and  _330
REMARK  136  A    between atoms: _339  and  _341
REMARK  137  A    between atoms: _341  and  _342
REMARK  138  A    between atoms: _341  and  _344
REMARK  139  A    between atoms: _344  and  _345
REMARK  140  A    between atoms: _348  and  _350
REMARK  141  A    between atoms: _350  and  _351
REMARK  142  A    between atoms: _350  and  _353
REMARK  143  A    between atoms: _353  and  _354
REMARK  144  A    between atoms: _358  and  _359
REMARK  145  A    between atoms: _364  and  _366
REMARK  146  A    between atoms: _366  and  _367
REMARK  147  A    between atoms: _366  and  _369
REMARK  148  A    between atoms: _369  and  _370
REMARK  149  A    between atoms: _375  and  _376
REMARK  150  A    between atoms: _378  and  _380
REMARK  151  A    between atoms: _380  and  _381
REMARK  152  A    between atoms: _380  and  _383
REMARK  153  A    between atoms: _383  and  _384
REMARK  154  A    between atoms: _394  and  _396
REMARK  155  A    between atoms: _396  and  _397
REMARK  156  A    between atoms: _396  and  _399
REMARK  157  A    between atoms: _399  and  _400
REMARK  158  A    between atoms: _406  and  _408
REMARK  159  A    between atoms: _408  and  _409
REMARK  160  A    between atoms: _408  and  _411
REMARK  161  A    between atoms: _411  and  _412
REMARK  162  A    between atoms: _415  and  _417
REMARK  163  A    between atoms: _417  and  _418
REMARK  164  A    between atoms: _417  and  _420
REMARK  165  A    between atoms: _420  and  _421
REMARK  166  A    between atoms: _431  and  _433
REMARK  167  A    between atoms: _433  and  _434
REMARK  168  A    between atoms: _433  and  _436
REMARK  169  A    between atoms: _436  and  _437
REMARK  170  A    between atoms: _437  and  _438
REMARK  171  A    between atoms: _440  and  _442
REMARK  172  A    between atoms: _442  and  _443
REMARK  173  A    between atoms: _442  and  _445
REMARK  174  A    between atoms: _445  and  _446
REMARK  175  A    between atoms: _451  and  _453
REMARK  176  A    between atoms: _453  and  _454
REMARK  177  A    between atoms: _457  and  _458
REMARK  178  A    between atoms: _463  and  _465
REMARK  179  A    between atoms: _465  and  _466
REMARK  180  A    between atoms: _465  and  _468
REMARK  181  A    between atoms: _468  and  _469
REMARK  182  A    between atoms: _479  and  _481
REMARK  183  A    between atoms: _481  and  _482
REMARK  184  A    between atoms: _486  and  _487
REMARK  185  A    between atoms: _492  and  _494
REMARK  186  A    between atoms: _494  and  _495
REMARK  187  A    between atoms: _494  and  _497
REMARK  188  A    between atoms: _497  and  _498
REMARK  189  A    between atoms: _498  and  _499
REMARK  190  A    between atoms: _504  and  _506
REMARK  191  A    between atoms: _506  and  _507
REMARK  192  A    between atoms: _509  and  _511
REMARK  193  A    between atoms: _511  and  _512
REMARK  194  A    between atoms: _514  and  _516
REMARK  195  A    between atoms: _516  and  _517
REMARK  196  A    between atoms: _516  and  _519
REMARK  197  A    between atoms: _519  and  _520
REMARK  198  A    between atoms: _530  and  _532
REMARK  199  A    between atoms: _532  and  _533
REMARK  200  A    between atoms: _532  and  _535
REMARK  201  A    between atoms: _535  and  _536
REMARK  202  A    between atoms: _539  and  _541
REMARK  203  A    between atoms: _541  and  _542
REMARK  204  A    between atoms: _541  and  _544
REMARK  205  A    between atoms: _544  and  _545
REMARK  206  A    between atoms: _548  and  _550
REMARK  207  A    between atoms: _550  and  _551
REMARK  208  A    between atoms: _550  and  _553
REMARK  209  A    between atoms: _553  and  _554
REMARK  210  A    between atoms: _554  and  _555
REMARK  211  A    between atoms: _555  and  _556
REMARK  212  A    between atoms: _565  and  _567
REMARK  213  A    between atoms: _567  and  _568
REMARK  214  A    between atoms: _567  and  _570
REMARK  215  A    between atoms: _570  and  _571
REMARK  216  A    between atoms: _581  and  _583
REMARK  217  A    between atoms: _583  and  _584
REMARK  218  A    between atoms: _586  and  _588
REMARK  219  A    between atoms: _588  and  _589
REMARK  220  A    between atoms: _588  and  _591
REMARK  221  A    between atoms: _591  and  _592
REMARK  222  A    between atoms: _597  and  _599
REMARK  223  A    between atoms: _599  and  _600
REMARK  224  A    between atoms: _603  and  _605
REMARK  225  A    between atoms: _605  and  _606
REMARK  226  A    between atoms: _605  and  _608
REMARK  227  A    between atoms: _608  and  _609
REMARK  228  A    between atoms: _612  and  _614
REMARK  229  A    between atoms: _614  and  _615
REMARK  230  A    between atoms: _614  and  _617
REMARK  231  A    between atoms: _617  and  _618
REMARK  232  A    between atoms: _624  and  _626
REMARK  233  A    between atoms: _626  and  _627
REMARK  234  A    between atoms: _626  and  _629
REMARK  235  A    between atoms: _629  and  _630
REMARK  236  A    between atoms: _630  and  _631
REMARK  237  A    between atoms: _635  and  _636
REMARK  238  A    between atoms: _641  and  _643
REMARK  239  A    between atoms: _643  and  _644
REMARK  240  A    between atoms: _643  and  _646
REMARK  241  A    between atoms: _646  and  _647
REMARK  242  A    between atoms: _647  and  _648
REMARK  243  A    between atoms: _648  and  _649
REMARK                            x       y       z     vdW  Elec       q    Type
REMARK                         _______ _______ _______ _____ _____    ______ ____
ROOT
ATOM      1  O   HOH     1      -8.960  -2.487  19.706  0.00  0.00    +0.000 OA
ENDROOT
TORSDOF 0
REMARK  Name = ../refined-set-2016/3k02/3k02_pocket.pdb
REMARK  243 active torsions:
REMARK  status: ('A' for Active; 'I' for Inactive)
REMARK    1  A    between atoms: _1  and  _3
REMARK    2  A    between atoms: _3  and  _4
REMARK    3  A    between atoms: _3  and  _6
REMARK    4  A    between atoms: _6  and  _7
REMARK    5  A    between atoms: _10  and  _12
REMARK    6  A    between atoms: _12  and  _13
REMARK    7  A    between atoms: _12  and  _15
REMARK    8  A    between atoms: _15  and  _16
REMARK    9  A    between atoms: _19  and  _21
REMARK   10  A    between atoms: _21  and  _22
REMARK   11  A    between atoms: _21  and  _24
REMARK   12  A    between atoms: _24  and  _25
REMARK   13  A    between atoms: _27  and  _29
REMARK   14  A    between atoms: _29  and  _30
REMARK   15  A    between atoms: _29  and  _32
REMARK   16  A    between atoms: _32  and  _33
REMARK   17  A    between atoms: _38  and  _40
REMARK   18  A    between atoms: _40  and  _41
REMARK   19  A    between atoms: _40  and  _43
REMARK   20  A    between atoms: _43  and  _44
REMARK   21  A    between atoms: _44  and  _45
REMARK   22  A    between atoms: _48  and  _50
REMARK   23  A    between atoms: _50  and  _51
REMARK   24  A    between atoms: _54  and  _56
REMARK   25  A    between atoms: _56  and  _57
REMARK   26  A    between atoms: _56  and  _59
REMARK   27  A    between atoms: _59  and  _60
REMARK   28  A    between atoms: _60  and  _61
REMARK   29  A    between atoms: _64  and  _66
REMARK   30  A    between atoms: _66  and  _67
REMARK   31  A    between atoms: _66  and  _69
REMARK   32  A    between atoms: _69  and  _70
REMARK   33  A    between atoms: _70  and  _71
REMARK   34  A    between atoms: _71  and  _72
REMARK   35  A    between atoms: _72  and  _73
REMARK   36  A    between atoms: _77  and  _79
REMARK   37  A    between atoms: _79  and  _80
REMARK   38  A    between atoms: _79  and  _82
REMARK   39  A    between atoms: _82  and  _83
REMARK   40  A    between atoms: _88  and  _89
REMARK   41  A    between atoms: _91  and  _93
REMARK   42  A    between atoms: _93  and  _94
REMARK   43  A    between atoms: _93  and  _96
REMARK   44  A    between atoms: _96  and  _97
REMARK   45  A    between atoms: _102  and  _104
REMARK   46  A    between atoms: _104  and  _105
REMARK   47  A    between atoms: _104  and  _107
REMARK   48  A    between atoms: _111  and  _112
REMARK   49  A    between atoms: _117  and  _119
REMARK   50  A    between atoms: _119  and  _120
REMARK   51  A    between atoms: _119  and  _122
REMARK   52  A    between atoms: _122  and  _123
REMARK   53  A    between atoms: _129  and  _131
REMARK   54  A    between atoms: _131  and  _132
REMARK   55  A    between atoms: _134  and  _136
REMARK   56  A    between atoms: _136  and  _137
REMARK   57  A    between atoms: _136  and  _139
REMARK   58  A    between atoms: _139  and  _140
REMARK   59  A    between atoms: _140  and  _141
REMARK   60  A    between atoms: _144  and  _146
REMARK   61  A    between atoms: _146  and  _147
REMARK   62  A    between atoms: _150  and  _152
REMARK   63  A    between atoms: _152  and  _153
REMARK   64  A    between atoms: _152  and  _155
REMARK   65  A    between atoms: _155  and  _156
REMARK   66  A    between atoms: _161  and  _163
REMARK   67  A    between atoms: _163  and  _164
REMARK   68  A    between atoms: _167  and  _169
REMARK   69  A    between atoms: _169  and  _170
REMARK   70  A    between atoms: _169  and  _172
REMARK   71  A    between atoms: _172  and  _173
REMARK   72  A    between atoms: _173  and  _174
REMARK   73  A    between atoms: _174  and  _175
REMARK   74  A    between atoms: _175  and  _176
REMARK   75  A    between atoms: _180  and  _182
REMARK   76  A    between atoms: _182  and  _183
REMARK   77  A    between atoms: _182  and  _185
REMARK   78  A    between atoms: _185  and  _186
REMARK   79  A    between atoms: _186  and  _187
REMARK   80  A    between atoms: _187  and  _188
REMARK   81  A    between atoms: _197  and  _199
REMARK   82  A    between atoms: _199  and  _200
REMARK   83  A    between atoms: _199  and  _202
REMARK   84  A    between atoms: _202  and  _203
REMARK   85  A    between atoms: _203  and  _204
REMARK   86  A    between atoms: _207  and  _209
REMARK   87  A    between atoms: _209  and  _210
REMARK   88  A    between atoms: _209  and  _212
REMARK   89  A    between atoms: _215  and  _217
REMARK   90  A    between atoms: _217  and  _218
REMARK   91  A    between atoms: _221  and  _223
REMARK   92  A    between atoms: _223  and  _224
REMARK   93  A    between atoms: _223  and  _226
REMARK   94  A    between atoms: _226  and  _227
REMARK   95  A    between atoms: _237  and  _239
REMARK   96  A    between atoms: _239  and  _240
REMARK   97  A    between atoms: _239  and  _242
REMARK   98  A    between atoms: _245  and  _247
REMARK   99  A    between atoms: _247  and  _248
REMARK  100  A    between atoms: _247  and  _250
REMARK  101  A    between atoms: _250  and  _251
REMARK  102  A    between atoms: _254  and  _256
REMARK  103  A    between atoms: _256  and  _257
REMARK  104  A    between atoms: _256  and  _259
REMARK  105  A    between atoms: _259  and  _260
REMARK  106  A    between atoms: _266  and  _268
REMARK  107  A    between atoms: _268  and  _269
REMARK  108  A    between atoms: _268  and  _271
REMARK  109  A    between atoms: _271  and  _272
REMARK  110  A    between atoms: _272  and  _273
REMARK  111  A    between atoms: _278  and  _280
REMARK  112  A    between atoms: _280  and  _281
REMARK  113  A    between atoms: _280  and  _283
REMARK  114  A    between atoms: _286  and  _288
REMARK  115  A    between atoms: _288  and  _289
REMARK  116  A    between atoms: _288  and  _291
REMARK  117  A    between atoms: _291  and  _292
REMARK  118  A    between atoms: _295  and  _297
REMARK  119  A    between atoms: _297  and  _298
REMARK  120  A    between atoms: _297  and  _300
REMARK  121  A    between atoms: _300  and  _301
REMARK  122  A    between atoms: _304  and  _306
REMARK  123  A    between atoms: _306  and  _307
REMARK  124  A    between atoms: _306  and  _309
REMARK  125  A    between atoms: _309  and  _310
REMARK  126  A    between atoms: _313  and  _315
REMARK  127  A    between atoms: _315  and  _316
REMARK  128  A    between atoms: _315  and  _318
REMARK  129  A    between atoms: _318  and  _319
REMARK  130  A    between atoms: _322  and  _324
REMARK  131  A    between atoms: _324  and  _325
REMARK  132  A    between atoms: _324  and  _327
REMARK  133  A    between atoms: _327  and  _328
REMARK  134  A    between atoms: _328  and  _329
REMARK  135  A    between atoms: _329  and  _330
REMARK  136  A    between atoms: _339  and  _341
REMARK  137  A    between atoms: _341  and  _342
REMARK  138  A    between atoms: _341  and  _344
REMARK  139  A    between atoms: _344  and  _345
REMARK  140  A    between atoms: _348  and  _350
REMARK  141  A    between atoms: _350  and  _351
REMARK  142  A    between atoms: _350  and  _353
REMARK  143  A    between atoms: _353  and  _354
REMARK  144  A    between atoms: _358  and  _359
REMARK  145  A    between atoms: _364  and  _366
REMARK  146  A    between atoms: _366  and  _367
REMARK  147  A    between atoms: _366  and  _369
REMARK  148  A    between atoms: _369  and  _370
REMARK  149  A    between atoms: _375  and  _376
REMARK  150  A    between atoms: _378  and  _380
REMARK  151  A    between atoms: _380  and  _381
REMARK  152  A    between atoms: _380  and  _383
REMARK  153  A    between atoms: _383  and  _384
REMARK  154  A    between atoms: _394  and  _396
REMARK  155  A    between atoms: _396  and  _397
REMARK  156  A    between atoms: _396  and  _399
REMARK  157  A    between atoms: _399  and  _400
REMARK  158  A    between atoms: _406  and  _408
REMARK  159  A    between atoms: _408  and  _409
REMARK  160  A    between atoms: _408  and  _411
REMARK  161  A    between atoms: _411  and  _412
REMARK  162  A    between atoms: _415  and  _417
REMARK  163  A    between atoms: _417  and  _418
REMARK  164  A    between atoms: _417  and  _420
REMARK  165  A    between atoms: _420  and  _421
REMARK  166  A    between atoms: _431  and  _433
REMARK  167  A    between atoms: _433  and  _434
REMARK  168  A    between atoms: _433  and  _436
REMARK  169  A    between atoms: _436  and  _437
REMARK  170  A    between atoms: _437  and  _438
REMARK  171  A    between atoms: _440  and  _442
REMARK  172  A    between atoms: _442  and  _443
REMARK  173  A    between atoms: _442  and  _445
REMARK  174  A    between atoms: _445  and  _446
REMARK  175  A    between atoms: _451  and  _453
REMARK  176  A    between atoms: _453  and  _454
REMARK  177  A    between atoms: _457  and  _458
REMARK  178  A    between atoms: _463  and  _465
REMARK  179  A    between atoms: _465  and  _466
REMARK  180  A    between atoms: _465  and  _468
REMARK  181  A    between atoms: _468  and  _469
REMARK  182  A    between atoms: _479  and  _481
REMARK  183  A    between atoms: _481  and  _482
REMARK  184  A    between atoms: _486  and  _487
REMARK  185  A    between atoms: _492  and  _494
REMARK  186  A    between atoms: _494  and  _495
REMARK  187  A    between atoms: _494  and  _497
REMARK  188  A    between atoms: _497  and  _498
REMARK  189  A    between atoms: _498  and  _499
REMARK  190  A    between atoms: _504  and  _506
REMARK  191  A    between atoms: _506  and  _507
REMARK  192  A    between atoms: _509  and  _511
REMARK  193  A    between atoms: _511  and  _512
REMARK  194  A    between atoms: _514  and  _516
REMARK  195  A    between atoms: _516  and  _517
REMARK  196  A    between atoms: _516  and  _519
REMARK  197  A    between atoms: _519  and  _520
REMARK  198  A    between atoms: _530  and  _532
REMARK  199  A    between atoms: _532  and  _533
REMARK  200  A    between atoms: _532  and  _535
REMARK  201  A    between atoms: _535  and  _536
REMARK  202  A    between atoms: _539  and  _541
REMARK  203  A    between atoms: _541  and  _542
REMARK  204  A    between atoms: _541  and  _544
REMARK  205  A    between atoms: _544  and  _545
REMARK  206  A    between atoms: _548  and  _550
REMARK  207  A    between atoms: _550  and  _551
REMARK  208  A    between atoms: _550  and  _553
REMARK  209  A    between atoms: _553  and  _554
REMARK  210  A    between atoms: _554  and  _555
REMARK  211  A    between atoms: _555  and  _556
REMARK  212  A    between atoms: _565  and  _567
REMARK  213  A    between atoms: _567  and  _568
REMARK  214  A    between atoms: _567  and  _570
REMARK  215  A    between atoms: _570  and  _571
REMARK  216  A    between atoms: _581  and  _583
REMARK  217  A    between atoms: _583  and  _584
REMARK  218  A    between atoms: _586  and  _588
REMARK  219  A    between atoms: _588  and  _589
REMARK  220  A    between atoms: _588  and  _591
REMARK  221  A    between atoms: _591  and  _592
REMARK  222  A    between atoms: _597  and  _599
REMARK  223  A    between atoms: _599  and  _600
REMARK  224  A    between atoms: _603  and  _605
REMARK  225  A    between atoms: _605  and  _606
REMARK  226  A    between atoms: _605  and  _608
REMARK  227  A    between atoms: _608  and  _609
REMARK  228  A    between atoms: _612  and  _614
REMARK  229  A    between atoms: _614  and  _615
REMARK  230  A    between atoms: _614  and  _617
REMARK  231  A    between atoms: _617  and  _618
REMARK  232  A    between atoms: _624  and  _626
REMARK  233  A    between atoms: _626  and  _627
REMARK  234  A    between atoms: _626  and  _629
REMARK  235  A    between atoms: _629  and  _630
REMARK  236  A    between atoms: _630  and  _631
REMARK  237  A    between atoms: _635  and  _636
REMARK  238  A    between atoms: _641  and  _643
REMARK  239  A    between atoms: _643  and  _644
REMARK  240  A    between atoms: _643  and  _646
REMARK  241  A    between atoms: _646  and  _647
REMARK  242  A    between atoms: _647  and  _648
REMARK  243  A    between atoms: _648  and  _649
REMARK                            x       y       z     vdW  Elec       q    Type
REMARK                         _______ _______ _______ _____ _____    ______ ____
ROOT
ATOM      1  O   HOH     1      -4.976   5.960  14.423  0.00  0.00    +0.000 OA
ENDROOT
TORSDOF 0
REMARK  Name = ../refined-set-2016/3k02/3k02_pocket.pdb
REMARK  243 active torsions:
REMARK  status: ('A' for Active; 'I' for Inactive)
REMARK    1  A    between atoms: _1  and  _3
REMARK    2  A    between atoms: _3  and  _4
REMARK    3  A    between atoms: _3  and  _6
REMARK    4  A    between atoms: _6  and  _7
REMARK    5  A    between atoms: _10  and  _12
REMARK    6  A    between atoms: _12  and  _13
REMARK    7  A    between atoms: _12  and  _15
REMARK    8  A    between atoms: _15  and  _16
REMARK    9  A    between atoms: _19  and  _21
REMARK   10  A    between atoms: _21  and  _22
REMARK   11  A    between atoms: _21  and  _24
REMARK   12  A    between atoms: _24  and  _25
REMARK   13  A    between atoms: _27  and  _29
REMARK   14  A    between atoms: _29  and  _30
REMARK   15  A    between atoms: _29  and  _32
REMARK   16  A    between atoms: _32  and  _33
REMARK   17  A    between atoms: _38  and  _40
REMARK   18  A    between atoms: _40  and  _41
REMARK   19  A    between atoms: _40  and  _43
REMARK   20  A    between atoms: _43  and  _44
REMARK   21  A    between atoms: _44  and  _45
REMARK   22  A    between atoms: _48  and  _50
REMARK   23  A    between atoms: _50  and  _51
REMARK   24  A    between atoms: _54  and  _56
REMARK   25  A    between atoms: _56  and  _57
REMARK   26  A    between atoms: _56  and  _59
REMARK   27  A    between atoms: _59  and  _60
REMARK   28  A    between atoms: _60  and  _61
REMARK   29  A    between atoms: _64  and  _66
REMARK   30  A    between atoms: _66  and  _67
REMARK   31  A    between atoms: _66  and  _69
REMARK   32  A    between atoms: _69  and  _70
REMARK   33  A    between atoms: _70  and  _71
REMARK   34  A    between atoms: _71  and  _72
REMARK   35  A    between atoms: _72  and  _73
REMARK   36  A    between atoms: _77  and  _79
REMARK   37  A    between atoms: _79  and  _80
REMARK   38  A    between atoms: _79  and  _82
REMARK   39  A    between atoms: _82  and  _83
REMARK   40  A    between atoms: _88  and  _89
REMARK   41  A    between atoms: _91  and  _93
REMARK   42  A    between atoms: _93  and  _94
REMARK   43  A    between atoms: _93  and  _96
REMARK   44  A    between atoms: _96  and  _97
REMARK   45  A    between atoms: _102  and  _104
REMARK   46  A    between atoms: _104  and  _105
REMARK   47  A    between atoms: _104  and  _107
REMARK   48  A    between atoms: _111  and  _112
REMARK   49  A    between atoms: _117  and  _119
REMARK   50  A    between atoms: _119  and  _120
REMARK   51  A    between atoms: _119  and  _122
REMARK   52  A    between atoms: _122  and  _123
REMARK   53  A    between atoms: _129  and  _131
REMARK   54  A    between atoms: _131  and  _132
REMARK   55  A    between atoms: _134  and  _136
REMARK   56  A    between atoms: _136  and  _137
REMARK   57  A    between atoms: _136  and  _139
REMARK   58  A    between atoms: _139  and  _140
REMARK   59  A    between atoms: _140  and  _141
REMARK   60  A    between atoms: _144  and  _146
REMARK   61  A    between atoms: _146  and  _147
REMARK   62  A    between atoms: _150  and  _152
REMARK   63  A    between atoms: _152  and  _153
REMARK   64  A    between atoms: _152  and  _155
REMARK   65  A    between atoms: _155  and  _156
REMARK   66  A    between atoms: _161  and  _163
REMARK   67  A    between atoms: _163  and  _164
REMARK   68  A    between atoms: _167  and  _169
REMARK   69  A    between atoms: _169  and  _170
REMARK   70  A    between atoms: _169  and  _172
REMARK   71  A    between atoms: _172  and  _173
REMARK   72  A    between atoms: _173  and  _174
REMARK   73  A    between atoms: _174  and  _175
REMARK   74  A    between atoms: _175  and  _176
REMARK   75  A    between atoms: _180  and  _182
REMARK   76  A    between atoms: _182  and  _183
REMARK   77  A    between atoms: _182  and  _185
REMARK   78  A    between atoms: _185  and  _186
REMARK   79  A    between atoms: _186  and  _187
REMARK   80  A    between atoms: _187  and  _188
REMARK   81  A    between atoms: _197  and  _199
REMARK   82  A    between atoms: _199  and  _200
REMARK   83  A    between atoms: _199  and  _202
REMARK   84  A    between atoms: _202  and  _203
REMARK   85  A    between atoms: _203  and  _204
REMARK   86  A    between atoms: _207  and  _209
REMARK   87  A    between atoms: _209  and  _210
REMARK   88  A    between atoms: _209  and  _212
REMARK   89  A    between atoms: _215  and  _217
REMARK   90  A    between atoms: _217  and  _218
REMARK   91  A    between atoms: _221  and  _223
REMARK   92  A    between atoms: _223  and  _224
REMARK   93  A    between atoms: _223  and  _226
REMARK   94  A    between atoms: _226  and  _227
REMARK   95  A    between atoms: _237  and  _239
REMARK   96  A    between atoms: _239  and  _240
REMARK   97  A    between atoms: _239  and  _242
REMARK   98  A    between atoms: _245  and  _247
REMARK   99  A    between atoms: _247  and  _248
REMARK  100  A    between atoms: _247  and  _250
REMARK  101  A    between atoms: _250  and  _251
REMARK  102  A    between atoms: _254  and  _256
REMARK  103  A    between atoms: _256  and  _257
REMARK  104  A    between atoms: _256  and  _259
REMARK  105  A    between atoms: _259  and  _260
REMARK  106  A    between atoms: _266  and  _268
REMARK  107  A    between atoms: _268  and  _269
REMARK  108  A    between atoms: _268  and  _271
REMARK  109  A    between atoms: _271  and  _272
REMARK  110  A    between atoms: _272  and  _273
REMARK  111  A    between atoms: _278  and  _280
REMARK  112  A    between atoms: _280  and  _281
REMARK  113  A    between atoms: _280  and  _283
REMARK  114  A    between atoms: _286  and  _288
REMARK  115  A    between atoms: _288  and  _289
REMARK  116  A    between atoms: _288  and  _291
REMARK  117  A    between atoms: _291  and  _292
REMARK  118  A    between atoms: _295  and  _297
REMARK  119  A    between atoms: _297  and  _298
REMARK  120  A    between atoms: _297  and  _300
REMARK  121  A    between atoms: _300  and  _301
REMARK  122  A    between atoms: _304  and  _306
REMARK  123  A    between atoms: _306  and  _307
REMARK  124  A    between atoms: _306  and  _309
REMARK  125  A    between atoms: _309  and  _310
REMARK  126  A    between atoms: _313  and  _315
REMARK  127  A    between atoms: _315  and  _316
REMARK  128  A    between atoms: _315  and  _318
REMARK  129  A    between atoms: _318  and  _319
REMARK  130  A    between atoms: _322  and  _324
REMARK  131  A    between atoms: _324  and  _325
REMARK  132  A    between atoms: _324  and  _327
REMARK  133  A    between atoms: _327  and  _328
REMARK  134  A    between atoms: _328  and  _329
REMARK  135  A    between atoms: _329  and  _330
REMARK  136  A    between atoms: _339  and  _341
REMARK  137  A    between atoms: _341  and  _342
REMARK  138  A    between atoms: _341  and  _344
REMARK  139  A    between atoms: _344  and  _345
REMARK  140  A    between atoms: _348  and  _350
REMARK  141  A    between atoms: _350  and  _351
REMARK  142  A    between atoms: _350  and  _353
REMARK  143  A    between atoms: _353  and  _354
REMARK  144  A    between atoms: _358  and  _359
REMARK  145  A    between atoms: _364  and  _366
REMARK  146  A    between atoms: _366  and  _367
REMARK  147  A    between atoms: _366  and  _369
REMARK  148  A    between atoms: _369  and  _370
REMARK  149  A    between atoms: _375  and  _376
REMARK  150  A    between atoms: _378  and  _380
REMARK  151  A    between atoms: _380  and  _381
REMARK  152  A    between atoms: _380  and  _383
REMARK  153  A    between atoms: _383  and  _384
REMARK  154  A    between atoms: _394  and  _396
REMARK  155  A    between atoms: _396  and  _397
REMARK  156  A    between atoms: _396  and  _399
REMARK  157  A    between atoms: _399  and  _400
REMARK  158  A    between atoms: _406  and  _408
REMARK  159  A    between atoms: _408  and  _409
REMARK  160  A    between atoms: _408  and  _411
REMARK  161  A    between atoms: _411  and  _412
REMARK  162  A    between atoms: _415  and  _417
REMARK  163  A    between atoms: _417  and  _418
REMARK  164  A    between atoms: _417  and  _420
REMARK  165  A    between atoms: _420  and  _421
REMARK  166  A    between atoms: _431  and  _433
REMARK  167  A    between atoms: _433  and  _434
REMARK  168  A    between atoms: _433  and  _436
REMARK  169  A    between atoms: _436  and  _437
REMARK  170  A    between atoms: _437  and  _438
REMARK  171  A    between atoms: _440  and  _442
REMARK  172  A    between atoms: _442  and  _443
REMARK  173  A    between atoms: _442  and  _445
REMARK  174  A    between atoms: _445  and  _446
REMARK  175  A    between atoms: _451  and  _453
REMARK  176  A    between atoms: _453  and  _454
REMARK  177  A    between atoms: _457  and  _458
REMARK  178  A    between atoms: _463  and  _465
REMARK  179  A    between atoms: _465  and  _466
REMARK  180  A    between atoms: _465  and  _468
REMARK  181  A    between atoms: _468  and  _469
REMARK  182  A    between atoms: _479  and  _481
REMARK  183  A    between atoms: _481  and  _482
REMARK  184  A    between atoms: _486  and  _487
REMARK  185  A    between atoms: _492  and  _494
REMARK  186  A    between atoms: _494  and  _495
REMARK  187  A    between atoms: _494  and  _497
REMARK  188  A    between atoms: _497  and  _498
REMARK  189  A    between atoms: _498  and  _499
REMARK  190  A    between atoms: _504  and  _506
REMARK  191  A    between atoms: _506  and  _507
REMARK  192  A    between atoms: _509  and  _511
REMARK  193  A    between atoms: _511  and  _512
REMARK  194  A    between atoms: _514  and  _516
REMARK  195  A    between atoms: _516  and  _517
REMARK  196  A    between atoms: _516  and  _519
REMARK  197  A    between atoms: _519  and  _520
REMARK  198  A    between atoms: _530  and  _532
REMARK  199  A    between atoms: _532  and  _533
REMARK  200  A    between atoms: _532  and  _535
REMARK  201  A    between atoms: _535  and  _536
REMARK  202  A    between atoms: _539  and  _541
REMARK  203  A    between atoms: _541  and  _542
REMARK  204  A    between atoms: _541  and  _544
REMARK  205  A    between atoms: _544  and  _545
REMARK  206  A    between atoms: _548  and  _550
REMARK  207  A    between atoms: _550  and  _551
REMARK  208  A    between atoms: _550  and  _553
REMARK  209  A    between atoms: _553  and  _554
REMARK  210  A    between atoms: _554  and  _555
REMARK  211  A    between atoms: _555  and  _556
REMARK  212  A    between atoms: _565  and  _567
REMARK  213  A    between atoms: _567  and  _568
REMARK  214  A    between atoms: _567  and  _570
REMARK  215  A    between atoms: _570  and  _571
REMARK  216  A    between atoms: _581  and  _583
REMARK  217  A    between atoms: _583  and  _584
REMARK  218  A    between atoms: _586  and  _588
REMARK  219  A    between atoms: _588  and  _589
REMARK  220  A    between atoms: _588  and  _591
REMARK  221  A    between atoms: _591  and  _592
REMARK  222  A    between atoms: _597  and  _599
REMARK  223  A    between atoms: _599  and  _600
REMARK  224  A    between atoms: _603  and  _605
REMARK  225  A    between atoms: _605  and  _606
REMARK  226  A    between atoms: _605  and  _608
REMARK  227  A    between atoms: _608  and  _609
REMARK  228  A    between atoms: _612  and  _614
REMARK  229  A    between atoms: _614  and  _615
REMARK  230  A    between atoms: _614  and  _617
REMARK  231  A    between atoms: _617  and  _618
REMARK  232  A    between atoms: _624  and  _626
REMARK  233  A    between atoms: _626  and  _627
REMARK  234  A    between atoms: _626  and  _629
REMARK  235  A    between atoms: _629  and  _630
REMARK  236  A    between atoms: _630  and  _631
REMARK  237  A    between atoms: _635  and  _636
REMARK  238  A    between atoms: _641  and  _643
REMARK  239  A    between atoms: _643  and  _644
REMARK  240  A    between atoms: _643  and  _646
REMARK  241  A    between atoms: _646  and  _647
REMARK  242  A    between atoms: _647  and  _648
REMARK  243  A    between atoms: _648  and  _649
REMARK                            x       y       z     vdW  Elec       q    Type
REMARK                         _______ _______ _______ _____ _____    ______ ____
ROOT
ATOM      1  O   HOH     1      -6.148 -14.959  15.064  0.00  0.00    +0.000 OA
ENDROOT
TORSDOF 0
REMARK  Name = ../refined-set-2016/3k02/3k02_pocket.pdb
REMARK  243 active torsions:
REMARK  status: ('A' for Active; 'I' for Inactive)
REMARK    1  A    between atoms: _1  and  _3
REMARK    2  A    between atoms: _3  and  _4
REMARK    3  A    between atoms: _3  and  _6
REMARK    4  A    between atoms: _6  and  _7
REMARK    5  A    between atoms: _10  and  _12
REMARK    6  A    between atoms: _12  and  _13
REMARK    7  A    between atoms: _12  and  _15
REMARK    8  A    between atoms: _15  and  _16
REMARK    9  A    between atoms: _19  and  _21
REMARK   10  A    between atoms: _21  and  _22
REMARK   11  A    between atoms: _21  and  _24
REMARK   12  A    between atoms: _24  and  _25
REMARK   13  A    between atoms: _27  and  _29
REMARK   14  A    between atoms: _29  and  _30
REMARK   15  A    between atoms: _29  and  _32
REMARK   16  A    between atoms: _32  and  _33
REMARK   17  A    between atoms: _38  and  _40
REMARK   18  A    between atoms: _40  and  _41
REMARK   19  A    between atoms: _40  and  _43
REMARK   20  A    between atoms: _43  and  _44
REMARK   21  A    between atoms: _44  and  _45
REMARK   22  A    between atoms: _48  and  _50
REMARK   23  A    between atoms: _50  and  _51
REMARK   24  A    between atoms: _54  and  _56
REMARK   25  A    between atoms: _56  and  _57
REMARK   26  A    between atoms: _56  and  _59
REMARK   27  A    between atoms: _59  and  _60
REMARK   28  A    between atoms: _60  and  _61
REMARK   29  A    between atoms: _64  and  _66
REMARK   30  A    between atoms: _66  and  _67
REMARK   31  A    between atoms: _66  and  _69
REMARK   32  A    between atoms: _69  and  _70
REMARK   33  A    between atoms: _70  and  _71
REMARK   34  A    between atoms: _71  and  _72
REMARK   35  A    between atoms: _72  and  _73
REMARK   36  A    between atoms: _77  and  _79
REMARK   37  A    between atoms: _79  and  _80
REMARK   38  A    between atoms: _79  and  _82
REMARK   39  A    between atoms: _82  and  _83
REMARK   40  A    between atoms: _88  and  _89
REMARK   41  A    between atoms: _91  and  _93
REMARK   42  A    between atoms: _93  and  _94
REMARK   43  A    between atoms: _93  and  _96
REMARK   44  A    between atoms: _96  and  _97
REMARK   45  A    between atoms: _102  and  _104
REMARK   46  A    between atoms: _104  and  _105
REMARK   47  A    between atoms: _104  and  _107
REMARK   48  A    between atoms: _111  and  _112
REMARK   49  A    between atoms: _117  and  _119
REMARK   50  A    between atoms: _119  and  _120
REMARK   51  A    between atoms: _119  and  _122
REMARK   52  A    between atoms: _122  and  _123
REMARK   53  A    between atoms: _129  and  _131
REMARK   54  A    between atoms: _131  and  _132
REMARK   55  A    between atoms: _134  and  _136
REMARK   56  A    between atoms: _136  and  _137
REMARK   57  A    between atoms: _136  and  _139
REMARK   58  A    between atoms: _139  and  _140
REMARK   59  A    between atoms: _140  and  _141
REMARK   60  A    between atoms: _144  and  _146
REMARK   61  A    between atoms: _146  and  _147
REMARK   62  A    between atoms: _150  and  _152
REMARK   63  A    between atoms: _152  and  _153
REMARK   64  A    between atoms: _152  and  _155
REMARK   65  A    between atoms: _155  and  _156
REMARK   66  A    between atoms: _161  and  _163
REMARK   67  A    between atoms: _163  and  _164
REMARK   68  A    between atoms: _167  and  _169
REMARK   69  A    between atoms: _169  and  _170
REMARK   70  A    between atoms: _169  and  _172
REMARK   71  A    between atoms: _172  and  _173
REMARK   72  A    between atoms: _173  and  _174
REMARK   73  A    between atoms: _174  and  _175
REMARK   74  A    between atoms: _175  and  _176
REMARK   75  A    between atoms: _180  and  _182
REMARK   76  A    between atoms: _182  and  _183
REMARK   77  A    between atoms: _182  and  _185
REMARK   78  A    between atoms: _185  and  _186
REMARK   79  A    between atoms: _186  and  _187
REMARK   80  A    between atoms: _187  and  _188
REMARK   81  A    between atoms: _197  and  _199
REMARK   82  A    between atoms: _199  and  _200
REMARK   83  A    between atoms: _199  and  _202
REMARK   84  A    between atoms: _202  and  _203
REMARK   85  A    between atoms: _203  and  _204
REMARK   86  A    between atoms: _207  and  _209
REMARK   87  A    between atoms: _209  and  _210
REMARK   88  A    between atoms: _209  and  _212
REMARK   89  A    between atoms: _215  and  _217
REMARK   90  A    between atoms: _217  and  _218
REMARK   91  A    between atoms: _221  and  _223
REMARK   92  A    between atoms: _223  and  _224
REMARK   93  A    between atoms: _223  and  _226
REMARK   94  A    between atoms: _226  and  _227
REMARK   95  A    between atoms: _237  and  _239
REMARK   96  A    between atoms: _239  and  _240
REMARK   97  A    between atoms: _239  and  _242
REMARK   98  A    between atoms: _245  and  _247
REMARK   99  A    between atoms: _247  and  _248
REMARK  100  A    between atoms: _247  and  _250
REMARK  101  A    between atoms: _250  and  _251
REMARK  102  A    between atoms: _254  and  _256
REMARK  103  A    between atoms: _256  and  _257
REMARK  104  A    between atoms: _256  and  _259
REMARK  105  A    between atoms: _259  and  _260
REMARK  106  A    between atoms: _266  and  _268
REMARK  107  A    between atoms: _268  and  _269
REMARK  108  A    between atoms: _268  and  _271
REMARK  109  A    between atoms: _271  and  _272
REMARK  110  A    between atoms: _272  and  _273
REMARK  111  A    between atoms: _278  and  _280
REMARK  112  A    between atoms: _280  and  _281
REMARK  113  A    between atoms: _280  and  _283
REMARK  114  A    between atoms: _286  and  _288
REMARK  115  A    between atoms: _288  and  _289
REMARK  116  A    between atoms: _288  and  _291
REMARK  117  A    between atoms: _291  and  _292
REMARK  118  A    between atoms: _295  and  _297
REMARK  119  A    between atoms: _297  and  _298
REMARK  120  A    between atoms: _297  and  _300
REMARK  121  A    between atoms: _300  and  _301
REMARK  122  A    between atoms: _304  and  _306
REMARK  123  A    between atoms: _306  and  _307
REMARK  124  A    between atoms: _306  and  _309
REMARK  125  A    between atoms: _309  and  _310
REMARK  126  A    between atoms: _313  and  _315
REMARK  127  A    between atoms: _315  and  _316
REMARK  128  A    between atoms: _315  and  _318
REMARK  129  A    between atoms: _318  and  _319
REMARK  130  A    between atoms: _322  and  _324
REMARK  131  A    between atoms: _324  and  _325
REMARK  132  A    between atoms: _324  and  _327
REMARK  133  A    between atoms: _327  and  _328
REMARK  134  A    between atoms: _328  and  _329
REMARK  135  A    between atoms: _329  and  _330
REMARK  136  A    between atoms: _339  and  _341
REMARK  137  A    between atoms: _341  and  _342
REMARK  138  A    between atoms: _341  and  _344
REMARK  139  A    between atoms: _344  and  _345
REMARK  140  A    between atoms: _348  and  _350
REMARK  141  A    between atoms: _350  and  _351
REMARK  142  A    between atoms: _350  and  _353
REMARK  143  A    between atoms: _353  and  _354
REMARK  144  A    between atoms: _358  and  _359
REMARK  145  A    between atoms: _364  and  _366
REMARK  146  A    between atoms: _366  and  _367
REMARK  147  A    between atoms: _366  and  _369
REMARK  148  A    between atoms: _369  and  _370
REMARK  149  A    between atoms: _375  and  _376
REMARK  150  A    between atoms: _378  and  _380
REMARK  151  A    between atoms: _380  and  _381
REMARK  152  A    between atoms: _380  and  _383
REMARK  153  A    between atoms: _383  and  _384
REMARK  154  A    between atoms: _394  and  _396
REMARK  155  A    between atoms: _396  and  _397
REMARK  156  A    between atoms: _396  and  _399
REMARK  157  A    between atoms: _399  and  _400
REMARK  158  A    between atoms: _406  and  _408
REMARK  159  A    between atoms: _408  and  _409
REMARK  160  A    between atoms: _408  and  _411
REMARK  161  A    between atoms: _411  and  _412
REMARK  162  A    between atoms: _415  and  _417
REMARK  163  A    between atoms: _417  and  _418
REMARK  164  A    between atoms: _417  and  _420
REMARK  165  A    between atoms: _420  and  _421
REMARK  166  A    between atoms: _431  and  _433
REMARK  167  A    between atoms: _433  and  _434
REMARK  168  A    between atoms: _433  and  _436
REMARK  169  A    between atoms: _436  and  _437
REMARK  170  A    between atoms: _437  and  _438
REMARK  171  A    between atoms: _440  and  _442
REMARK  172  A    between atoms: _442  and  _443
REMARK  173  A    between atoms: _442  and  _445
REMARK  174  A    between atoms: _445  and  _446
REMARK  175  A    between atoms: _451  and  _453
REMARK  176  A    between atoms: _453  and  _454
REMARK  177  A    between atoms: _457  and  _458
REMARK  178  A    between atoms: _463  and  _465
REMARK  179  A    between atoms: _465  and  _466
REMARK  180  A    between atoms: _465  and  _468
REMARK  181  A    between atoms: _468  and  _469
REMARK  182  A    between atoms: _479  and  _481
REMARK  183  A    between atoms: _481  and  _482
REMARK  184  A    between atoms: _486  and  _487
REMARK  185  A    between atoms: _492  and  _494
REMARK  186  A    between atoms: _494  and  _495
REMARK  187  A    between atoms: _494  and  _497
REMARK  188  A    between atoms: _497  and  _498
REMARK  189  A    between atoms: _498  and  _499
REMARK  190  A    between atoms: _504  and  _506
REMARK  191  A    between atoms: _506  and  _507
REMARK  192  A    between atoms: _509  and  _511
REMARK  193  A    between atoms: _511  and  _512
REMARK  194  A    between atoms: _514  and  _516
REMARK  195  A    between atoms: _516  and  _517
REMARK  196  A    between atoms: _516  and  _519
REMARK  197  A    between atoms: _519  and  _520
REMARK  198  A    between atoms: _530  and  _532
REMARK  199  A    between atoms: _532  and  _533
REMARK  200  A    between atoms: _532  and  _535
REMARK  201  A    between atoms: _535  and  _536
REMARK  202  A    between atoms: _539  and  _541
REMARK  203  A    between atoms: _541  and  _542
REMARK  204  A    between atoms: _541  and  _544
REMARK  205  A    between atoms: _544  and  _545
REMARK  206  A    between atoms: _548  and  _550
REMARK  207  A    between atoms: _550  and  _551
REMARK  208  A    between atoms: _550  and  _553
REMARK  209  A    between atoms: _553  and  _554
REMARK  210  A    between atoms: _554  and  _555
REMARK  211  A    between atoms: _555  and  _556
REMARK  212  A    between atoms: _565  and  _567
REMARK  213  A    between atoms: _567  and  _568
REMARK  214  A    between atoms: _567  and  _570
REMARK  215  A    between atoms: _570  and  _571
REMARK  216  A    between atoms: _581  and  _583
REMARK  217  A    between atoms: _583  and  _584
REMARK  218  A    between atoms: _586  and  _588
REMARK  219  A    between atoms: _588  and  _589
REMARK  220  A    between atoms: _588  and  _591
REMARK  221  A    between atoms: _591  and  _592
REMARK  222  A    between atoms: _597  and  _599
REMARK  223  A    between atoms: _599  and  _600
REMARK  224  A    between atoms: _603  and  _605
REMARK  225  A    between atoms: _605  and  _606
REMARK  226  A    between atoms: _605  and  _608
REMARK  227  A    between atoms: _608  and  _609
REMARK  228  A    between atoms: _612  and  _614
REMARK  229  A    between atoms: _614  and  _615
REMARK  230  A    between atoms: _614  and  _617
REMARK  231  A    between atoms: _617  and  _618
REMARK  232  A    between atoms: _624  and  _626
REMARK  233  A    between atoms: _626  and  _627
REMARK  234  A    between atoms: _626  and  _629
REMARK  235  A    between atoms: _629  and  _630
REMARK  236  A    between atoms: _630  and  _631
REMARK  237  A    between atoms: _635  and  _636
REMARK  238  A    between atoms: _641  and  _643
REMARK  239  A    between atoms: _643  and  _644
REMARK  240  A    between atoms: _643  and  _646
REMARK  241  A    between atoms: _646  and  _647
REMARK  242  A    between atoms: _647  and  _648
REMARK  243  A    between atoms: _648  and  _649
REMARK                            x       y       z     vdW  Elec       q    Type
REMARK                         _______ _______ _______ _____ _____    ______ ____
ROOT
ATOM      1  O   HOH     1      -5.982  -4.637  11.799  0.00  0.00    +0.000 OA
ENDROOT
TORSDOF 0
REMARK  Name = ../refined-set-2016/3k02/3k02_pocket.pdb
REMARK  243 active torsions:
REMARK  status: ('A' for Active; 'I' for Inactive)
REMARK    1  A    between atoms: _1  and  _3
REMARK    2  A    between atoms: _3  and  _4
REMARK    3  A    between atoms: _3  and  _6
REMARK    4  A    between atoms: _6  and  _7
REMARK    5  A    between atoms: _10  and  _12
REMARK    6  A    between atoms: _12  and  _13
REMARK    7  A    between atoms: _12  and  _15
REMARK    8  A    between atoms: _15  and  _16
REMARK    9  A    between atoms: _19  and  _21
REMARK   10  A    between atoms: _21  and  _22
REMARK   11  A    between atoms: _21  and  _24
REMARK   12  A    between atoms: _24  and  _25
REMARK   13  A    between atoms: _27  and  _29
REMARK   14  A    between atoms: _29  and  _30
REMARK   15  A    between atoms: _29  and  _32
REMARK   16  A    between atoms: _32  and  _33
REMARK   17  A    between atoms: _38  and  _40
REMARK   18  A    between atoms: _40  and  _41
REMARK   19  A    between atoms: _40  and  _43
REMARK   20  A    between atoms: _43  and  _44
REMARK   21  A    between atoms: _44  and  _45
REMARK   22  A    between atoms: _48  and  _50
REMARK   23  A    between atoms: _50  and  _51
REMARK   24  A    between atoms: _54  and  _56
REMARK   25  A    between atoms: _56  and  _57
REMARK   26  A    between atoms: _56  and  _59
REMARK   27  A    between atoms: _59  and  _60
REMARK   28  A    between atoms: _60  and  _61
REMARK   29  A    between atoms: _64  and  _66
REMARK   30  A    between atoms: _66  and  _67
REMARK   31  A    between atoms: _66  and  _69
REMARK   32  A    between atoms: _69  and  _70
REMARK   33  A    between atoms: _70  and  _71
REMARK   34  A    between atoms: _71  and  _72
REMARK   35  A    between atoms: _72  and  _73
REMARK   36  A    between atoms: _77  and  _79
REMARK   37  A    between atoms: _79  and  _80
REMARK   38  A    between atoms: _79  and  _82
REMARK   39  A    between atoms: _82  and  _83
REMARK   40  A    between atoms: _88  and  _89
REMARK   41  A    between atoms: _91  and  _93
REMARK   42  A    between atoms: _93  and  _94
REMARK   43  A    between atoms: _93  and  _96
REMARK   44  A    between atoms: _96  and  _97
REMARK   45  A    between atoms: _102  and  _104
REMARK   46  A    between atoms: _104  and  _105
REMARK   47  A    between atoms: _104  and  _107
REMARK   48  A    between atoms: _111  and  _112
REMARK   49  A    between atoms: _117  and  _119
REMARK   50  A    between atoms: _119  and  _120
REMARK   51  A    between atoms: _119  and  _122
REMARK   52  A    between atoms: _122  and  _123
REMARK   53  A    between atoms: _129  and  _131
REMARK   54  A    between atoms: _131  and  _132
REMARK   55  A    between atoms: _134  and  _136
REMARK   56  A    between atoms: _136  and  _137
REMARK   57  A    between atoms: _136  and  _139
REMARK   58  A    between atoms: _139  and  _140
REMARK   59  A    between atoms: _140  and  _141
REMARK   60  A    between atoms: _144  and  _146
REMARK   61  A    between atoms: _146  and  _147
REMARK   62  A    between atoms: _150  and  _152
REMARK   63  A    between atoms: _152  and  _153
REMARK   64  A    between atoms: _152  and  _155
REMARK   65  A    between atoms: _155  and  _156
REMARK   66  A    between atoms: _161  and  _163
REMARK   67  A    between atoms: _163  and  _164
REMARK   68  A    between atoms: _167  and  _169
REMARK   69  A    between atoms: _169  and  _170
REMARK   70  A    between atoms: _169  and  _172
REMARK   71  A    between atoms: _172  and  _173
REMARK   72  A    between atoms: _173  and  _174
REMARK   73  A    between atoms: _174  and  _175
REMARK   74  A    between atoms: _175  and  _176
REMARK   75  A    between atoms: _180  and  _182
REMARK   76  A    between atoms: _182  and  _183
REMARK   77  A    between atoms: _182  and  _185
REMARK   78  A    between atoms: _185  and  _186
REMARK   79  A    between atoms: _186  and  _187
REMARK   80  A    between atoms: _187  and  _188
REMARK   81  A    between atoms: _197  and  _199
REMARK   82  A    between atoms: _199  and  _200
REMARK   83  A    between atoms: _199  and  _202
REMARK   84  A    between atoms: _202  and  _203
REMARK   85  A    between atoms: _203  and  _204
REMARK   86  A    between atoms: _207  and  _209
REMARK   87  A    between atoms: _209  and  _210
REMARK   88  A    between atoms: _209  and  _212
REMARK   89  A    between atoms: _215  and  _217
REMARK   90  A    between atoms: _217  and  _218
REMARK   91  A    between atoms: _221  and  _223
REMARK   92  A    between atoms: _223  and  _224
REMARK   93  A    between atoms: _223  and  _226
REMARK   94  A    between atoms: _226  and  _227
REMARK   95  A    between atoms: _237  and  _239
REMARK   96  A    between atoms: _239  and  _240
REMARK   97  A    between atoms: _239  and  _242
REMARK   98  A    between atoms: _245  and  _247
REMARK   99  A    between atoms: _247  and  _248
REMARK  100  A    between atoms: _247  and  _250
REMARK  101  A    between atoms: _250  and  _251
REMARK  102  A    between atoms: _254  and  _256
REMARK  103  A    between atoms: _256  and  _257
REMARK  104  A    between atoms: _256  and  _259
REMARK  105  A    between atoms: _259  and  _260
REMARK  106  A    between atoms: _266  and  _268
REMARK  107  A    between atoms: _268  and  _269
REMARK  108  A    between atoms: _268  and  _271
REMARK  109  A    between atoms: _271  and  _272
REMARK  110  A    between atoms: _272  and  _273
REMARK  111  A    between atoms: _278  and  _280
REMARK  112  A    between atoms: _280  and  _281
REMARK  113  A    between atoms: _280  and  _283
REMARK  114  A    between atoms: _286  and  _288
REMARK  115  A    between atoms: _288  and  _289
REMARK  116  A    between atoms: _288  and  _291
REMARK  117  A    between atoms: _291  and  _292
REMARK  118  A    between atoms: _295  and  _297
REMARK  119  A    between atoms: _297  and  _298
REMARK  120  A    between atoms: _297  and  _300
REMARK  121  A    between atoms: _300  and  _301
REMARK  122  A    between atoms: _304  and  _306
REMARK  123  A    between atoms: _306  and  _307
REMARK  124  A    between atoms: _306  and  _309
REMARK  125  A    between atoms: _309  and  _310
REMARK  126  A    between atoms: _313  and  _315
REMARK  127  A    between atoms: _315  and  _316
REMARK  128  A    between atoms: _315  and  _318
REMARK  129  A    between atoms: _318  and  _319
REMARK  130  A    between atoms: _322  and  _324
REMARK  131  A    between atoms: _324  and  _325
REMARK  132  A    between atoms: _324  and  _327
REMARK  133  A    between atoms: _327  and  _328
REMARK  134  A    between atoms: _328  and  _329
REMARK  135  A    between atoms: _329  and  _330
REMARK  136  A    between atoms: _339  and  _341
REMARK  137  A    between atoms: _341  and  _342
REMARK  138  A    between atoms: _341  and  _344
REMARK  139  A    between atoms: _344  and  _345
REMARK  140  A    between atoms: _348  and  _350
REMARK  141  A    between atoms: _350  and  _351
REMARK  142  A    between atoms: _350  and  _353
REMARK  143  A    between atoms: _353  and  _354
REMARK  144  A    between atoms: _358  and  _359
REMARK  145  A    between atoms: _364  and  _366
REMARK  146  A    between atoms: _366  and  _367
REMARK  147  A    between atoms: _366  and  _369
REMARK  148  A    between atoms: _369  and  _370
REMARK  149  A    between atoms: _375  and  _376
REMARK  150  A    between atoms: _378  and  _380
REMARK  151  A    between atoms: _380  and  _381
REMARK  152  A    between atoms: _380  and  _383
REMARK  153  A    between atoms: _383  and  _384
REMARK  154  A    between atoms: _394  and  _396
REMARK  155  A    between atoms: _396  and  _397
REMARK  156  A    between atoms: _396  and  _399
REMARK  157  A    between atoms: _399  and  _400
REMARK  158  A    between atoms: _406  and  _408
REMARK  159  A    between atoms: _408  and  _409
REMARK  160  A    between atoms: _408  and  _411
REMARK  161  A    between atoms: _411  and  _412
REMARK  162  A    between atoms: _415  and  _417
REMARK  163  A    between atoms: _417  and  _418
REMARK  164  A    between atoms: _417  and  _420
REMARK  165  A    between atoms: _420  and  _421
REMARK  166  A    between atoms: _431  and  _433
REMARK  167  A    between atoms: _433  and  _434
REMARK  168  A    between atoms: _433  and  _436
REMARK  169  A    between atoms: _436  and  _437
REMARK  170  A    between atoms: _437  and  _438
REMARK  171  A    between atoms: _440  and  _442
REMARK  172  A    between atoms: _442  and  _443
REMARK  173  A    between atoms: _442  and  _445
REMARK  174  A    between atoms: _445  and  _446
REMARK  175  A    between atoms: _451  and  _453
REMARK  176  A    between atoms: _453  and  _454
REMARK  177  A    between atoms: _457  and  _458
REMARK  178  A    between atoms: _463  and  _465
REMARK  179  A    between atoms: _465  and  _466
REMARK  180  A    between atoms: _465  and  _468
REMARK  181  A    between atoms: _468  and  _469
REMARK  182  A    between atoms: _479  and  _481
REMARK  183  A    between atoms: _481  and  _482
REMARK  184  A    between atoms: _486  and  _487
REMARK  185  A    between atoms: _492  and  _494
REMARK  186  A    between atoms: _494  and  _495
REMARK  187  A    between atoms: _494  and  _497
REMARK  188  A    between atoms: _497  and  _498
REMARK  189  A    between atoms: _498  and  _499
REMARK  190  A    between atoms: _504  and  _506
REMARK  191  A    between atoms: _506  and  _507
REMARK  192  A    between atoms: _509  and  _511
REMARK  193  A    between atoms: _511  and  _512
REMARK  194  A    between atoms: _514  and  _516
REMARK  195  A    between atoms: _516  and  _517
REMARK  196  A    between atoms: _516  and  _519
REMARK  197  A    between atoms: _519  and  _520
REMARK  198  A    between atoms: _530  and  _532
REMARK  199  A    between atoms: _532  and  _533
REMARK  200  A    between atoms: _532  and  _535
REMARK  201  A    between atoms: _535  and  _536
REMARK  202  A    between atoms: _539  and  _541
REMARK  203  A    between atoms: _541  and  _542
REMARK  204  A    between atoms: _541  and  _544
REMARK  205  A    between atoms: _544  and  _545
REMARK  206  A    between atoms: _548  and  _550
REMARK  207  A    between atoms: _550  and  _551
REMARK  208  A    between atoms: _550  and  _553
REMARK  209  A    between atoms: _553  and  _554
REMARK  210  A    between atoms: _554  and  _555
REMARK  211  A    between atoms: _555  and  _556
REMARK  212  A    between atoms: _565  and  _567
REMARK  213  A    between atoms: _567  and  _568
REMARK  214  A    between atoms: _567  and  _570
REMARK  215  A    between atoms: _570  and  _571
REMARK  216  A    between atoms: _581  and  _583
REMARK  217  A    between atoms: _583  and  _584
REMARK  218  A    between atoms: _586  and  _588
REMARK  219  A    between atoms: _588  and  _589
REMARK  220  A    between atoms: _588  and  _591
REMARK  221  A    between atoms: _591  and  _592
REMARK  222  A    between atoms: _597  and  _599
REMARK  223  A    between atoms: _599  and  _600
REMARK  224  A    between atoms: _603  and  _605
REMARK  225  A    between atoms: _605  and  _606
REMARK  226  A    between atoms: _605  and  _608
REMARK  227  A    between atoms: _608  and  _609
REMARK  228  A    between atoms: _612  and  _614
REMARK  229  A    between atoms: _614  and  _615
REMARK  230  A    between atoms: _614  and  _617
REMARK  231  A    between atoms: _617  and  _618
REMARK  232  A    between atoms: _624  and  _626
REMARK  233  A    between atoms: _626  and  _627
REMARK  234  A    between atoms: _626  and  _629
REMARK  235  A    between atoms: _629  and  _630
REMARK  236  A    between atoms: _630  and  _631
REMARK  237  A    between atoms: _635  and  _636
REMARK  238  A    between atoms: _641  and  _643
REMARK  239  A    between atoms: _643  and  _644
REMARK  240  A    between atoms: _643  and  _646
REMARK  241  A    between atoms: _646  and  _647
REMARK  242  A    between atoms: _647  and  _648
REMARK  243  A    between atoms: _648  and  _649
REMARK                            x       y       z     vdW  Elec       q    Type
REMARK                         _______ _______ _______ _____ _____    ______ ____
ROOT
ATOM      1  O   HOH     1     -14.613  -5.638  18.030  0.00  0.00    +0.000 OA
ENDROOT
TORSDOF 0
REMARK  Name = ../refined-set-2016/3k02/3k02_pocket.pdb
REMARK  243 active torsions:
REMARK  status: ('A' for Active; 'I' for Inactive)
REMARK    1  A    between atoms: _1  and  _3
REMARK    2  A    between atoms: _3  and  _4
REMARK    3  A    between atoms: _3  and  _6
REMARK    4  A    between atoms: _6  and  _7
REMARK    5  A    between atoms: _10  and  _12
REMARK    6  A    between atoms: _12  and  _13
REMARK    7  A    between atoms: _12  and  _15
REMARK    8  A    between atoms: _15  and  _16
REMARK    9  A    between atoms: _19  and  _21
REMARK   10  A    between atoms: _21  and  _22
REMARK   11  A    between atoms: _21  and  _24
REMARK   12  A    between atoms: _24  and  _25
REMARK   13  A    between atoms: _27  and  _29
REMARK   14  A    between atoms: _29  and  _30
REMARK   15  A    between atoms: _29  and  _32
REMARK   16  A    between atoms: _32  and  _33
REMARK   17  A    between atoms: _38  and  _40
REMARK   18  A    between atoms: _40  and  _41
REMARK   19  A    between atoms: _40  and  _43
REMARK   20  A    between atoms: _43  and  _44
REMARK   21  A    between atoms: _44  and  _45
REMARK   22  A    between atoms: _48  and  _50
REMARK   23  A    between atoms: _50  and  _51
REMARK   24  A    between atoms: _54  and  _56
REMARK   25  A    between atoms: _56  and  _57
REMARK   26  A    between atoms: _56  and  _59
REMARK   27  A    between atoms: _59  and  _60
REMARK   28  A    between atoms: _60  and  _61
REMARK   29  A    between atoms: _64  and  _66
REMARK   30  A    between atoms: _66  and  _67
REMARK   31  A    between atoms: _66  and  _69
REMARK   32  A    between atoms: _69  and  _70
REMARK   33  A    between atoms: _70  and  _71
REMARK   34  A    between atoms: _71  and  _72
REMARK   35  A    between atoms: _72  and  _73
REMARK   36  A    between atoms: _77  and  _79
REMARK   37  A    between atoms: _79  and  _80
REMARK   38  A    between atoms: _79  and  _82
REMARK   39  A    between atoms: _82  and  _83
REMARK   40  A    between atoms: _88  and  _89
REMARK   41  A    between atoms: _91  and  _93
REMARK   42  A    between atoms: _93  and  _94
REMARK   43  A    between atoms: _93  and  _96
REMARK   44  A    between atoms: _96  and  _97
REMARK   45  A    between atoms: _102  and  _104
REMARK   46  A    between atoms: _104  and  _105
REMARK   47  A    between atoms: _104  and  _107
REMARK   48  A    between atoms: _111  and  _112
REMARK   49  A    between atoms: _117  and  _119
REMARK   50  A    between atoms: _119  and  _120
REMARK   51  A    between atoms: _119  and  _122
REMARK   52  A    between atoms: _122  and  _123
REMARK   53  A    between atoms: _129  and  _131
REMARK   54  A    between atoms: _131  and  _132
REMARK   55  A    between atoms: _134  and  _136
REMARK   56  A    between atoms: _136  and  _137
REMARK   57  A    between atoms: _136  and  _139
REMARK   58  A    between atoms: _139  and  _140
REMARK   59  A    between atoms: _140  and  _141
REMARK   60  A    between atoms: _144  and  _146
REMARK   61  A    between atoms: _146  and  _147
REMARK   62  A    between atoms: _150  and  _152
REMARK   63  A    between atoms: _152  and  _153
REMARK   64  A    between atoms: _152  and  _155
REMARK   65  A    between atoms: _155  and  _156
REMARK   66  A    between atoms: _161  and  _163
REMARK   67  A    between atoms: _163  and  _164
REMARK   68  A    between atoms: _167  and  _169
REMARK   69  A    between atoms: _169  and  _170
REMARK   70  A    between atoms: _169  and  _172
REMARK   71  A    between atoms: _172  and  _173
REMARK   72  A    between atoms: _173  and  _174
REMARK   73  A    between atoms: _174  and  _175
REMARK   74  A    between atoms: _175  and  _176
REMARK   75  A    between atoms: _180  and  _182
REMARK   76  A    between atoms: _182  and  _183
REMARK   77  A    between atoms: _182  and  _185
REMARK   78  A    between atoms: _185  and  _186
REMARK   79  A    between atoms: _186  and  _187
REMARK   80  A    between atoms: _187  and  _188
REMARK   81  A    between atoms: _197  and  _199
REMARK   82  A    between atoms: _199  and  _200
REMARK   83  A    between atoms: _199  and  _202
REMARK   84  A    between atoms: _202  and  _203
REMARK   85  A    between atoms: _203  and  _204
REMARK   86  A    between atoms: _207  and  _209
REMARK   87  A    between atoms: _209  and  _210
REMARK   88  A    between atoms: _209  and  _212
REMARK   89  A    between atoms: _215  and  _217
REMARK   90  A    between atoms: _217  and  _218
REMARK   91  A    between atoms: _221  and  _223
REMARK   92  A    between atoms: _223  and  _224
REMARK   93  A    between atoms: _223  and  _226
REMARK   94  A    between atoms: _226  and  _227
REMARK   95  A    between atoms: _237  and  _239
REMARK   96  A    between atoms: _239  and  _240
REMARK   97  A    between atoms: _239  and  _242
REMARK   98  A    between atoms: _245  and  _247
REMARK   99  A    between atoms: _247  and  _248
REMARK  100  A    between atoms: _247  and  _250
REMARK  101  A    between atoms: _250  and  _251
REMARK  102  A    between atoms: _254  and  _256
REMARK  103  A    between atoms: _256  and  _257
REMARK  104  A    between atoms: _256  and  _259
REMARK  105  A    between atoms: _259  and  _260
REMARK  106  A    between atoms: _266  and  _268
REMARK  107  A    between atoms: _268  and  _269
REMARK  108  A    between atoms: _268  and  _271
REMARK  109  A    between atoms: _271  and  _272
REMARK  110  A    between atoms: _272  and  _273
REMARK  111  A    between atoms: _278  and  _280
REMARK  112  A    between atoms: _280  and  _281
REMARK  113  A    between atoms: _280  and  _283
REMARK  114  A    between atoms: _286  and  _288
REMARK  115  A    between atoms: _288  and  _289
REMARK  116  A    between atoms: _288  and  _291
REMARK  117  A    between atoms: _291  and  _292
REMARK  118  A    between atoms: _295  and  _297
REMARK  119  A    between atoms: _297  and  _298
REMARK  120  A    between atoms: _297  and  _300
REMARK  121  A    between atoms: _300  and  _301
REMARK  122  A    between atoms: _304  and  _306
REMARK  123  A    between atoms: _306  and  _307
REMARK  124  A    between atoms: _306  and  _309
REMARK  125  A    between atoms: _309  and  _310
REMARK  126  A    between atoms: _313  and  _315
REMARK  127  A    between atoms: _315  and  _316
REMARK  128  A    between atoms: _315  and  _318
REMARK  129  A    between atoms: _318  and  _319
REMARK  130  A    between atoms: _322  and  _324
REMARK  131  A    between atoms: _324  and  _325
REMARK  132  A    between atoms: _324  and  _327
REMARK  133  A    between atoms: _327  and  _328
REMARK  134  A    between atoms: _328  and  _329
REMARK  135  A    between atoms: _329  and  _330
REMARK  136  A    between atoms: _339  and  _341
REMARK  137  A    between atoms: _341  and  _342
REMARK  138  A    between atoms: _341  and  _344
REMARK  139  A    between atoms: _344  and  _345
REMARK  140  A    between atoms: _348  and  _350
REMARK  141  A    between atoms: _350  and  _351
REMARK  142  A    between atoms: _350  and  _353
REMARK  143  A    between atoms: _353  and  _354
REMARK  144  A    between atoms: _358  and  _359
REMARK  145  A    between atoms: _364  and  _366
REMARK  146  A    between atoms: _366  and  _367
REMARK  147  A    between atoms: _366  and  _369
REMARK  148  A    between atoms: _369  and  _370
REMARK  149  A    between atoms: _375  and  _376
REMARK  150  A    between atoms: _378  and  _380
REMARK  151  A    between atoms: _380  and  _381
REMARK  152  A    between atoms: _380  and  _383
REMARK  153  A    between atoms: _383  and  _384
REMARK  154  A    between atoms: _394  and  _396
REMARK  155  A    between atoms: _396  and  _397
REMARK  156  A    between atoms: _396  and  _399
REMARK  157  A    between atoms: _399  and  _400
REMARK  158  A    between atoms: _406  and  _408
REMARK  159  A    between atoms: _408  and  _409
REMARK  160  A    between atoms: _408  and  _411
REMARK  161  A    between atoms: _411  and  _412
REMARK  162  A    between atoms: _415  and  _417
REMARK  163  A    between atoms: _417  and  _418
REMARK  164  A    between atoms: _417  and  _420
REMARK  165  A    between atoms: _420  and  _421
REMARK  166  A    between atoms: _431  and  _433
REMARK  167  A    between atoms: _433  and  _434
REMARK  168  A    between atoms: _433  and  _436
REMARK  169  A    between atoms: _436  and  _437
REMARK  170  A    between atoms: _437  and  _438
REMARK  171  A    between atoms: _440  and  _442
REMARK  172  A    between atoms: _442  and  _443
REMARK  173  A    between atoms: _442  and  _445
REMARK  174  A    between atoms: _445  and  _446
REMARK  175  A    between atoms: _451  and  _453
REMARK  176  A    between atoms: _453  and  _454
REMARK  177  A    between atoms: _457  and  _458
REMARK  178  A    between atoms: _463  and  _465
REMARK  179  A    between atoms: _465  and  _466
REMARK  180  A    between atoms: _465  and  _468
REMARK  181  A    between atoms: _468  and  _469
REMARK  182  A    between atoms: _479  and  _481
REMARK  183  A    between atoms: _481  and  _482
REMARK  184  A    between atoms: _486  and  _487
REMARK  185  A    between atoms: _492  and  _494
REMARK  186  A    between atoms: _494  and  _495
REMARK  187  A    between atoms: _494  and  _497
REMARK  188  A    between atoms: _497  and  _498
REMARK  189  A    between atoms: _498  and  _499
REMARK  190  A    between atoms: _504  and  _506
REMARK  191  A    between atoms: _506  and  _507
REMARK  192  A    between atoms: _509  and  _511
REMARK  193  A    between atoms: _511  and  _512
REMARK  194  A    between atoms: _514  and  _516
REMARK  195  A    between atoms: _516  and  _517
REMARK  196  A    between atoms: _516  and  _519
REMARK  197  A    between atoms: _519  and  _520
REMARK  198  A    between atoms: _530  and  _532
REMARK  199  A    between atoms: _532  and  _533
REMARK  200  A    between atoms: _532  and  _535
REMARK  201  A    between atoms: _535  and  _536
REMARK  202  A    between atoms: _539  and  _541
REMARK  203  A    between atoms: _541  and  _542
REMARK  204  A    between atoms: _541  and  _544
REMARK  205  A    between atoms: _544  and  _545
REMARK  206  A    between atoms: _548  and  _550
REMARK  207  A    between atoms: _550  and  _551
REMARK  208  A    between atoms: _550  and  _553
REMARK  209  A    between atoms: _553  and  _554
REMARK  210  A    between atoms: _554  and  _555
REMARK  211  A    between atoms: _555  and  _556
REMARK  212  A    between atoms: _565  and  _567
REMARK  213  A    between atoms: _567  and  _568
REMARK  214  A    between atoms: _567  and  _570
REMARK  215  A    between atoms: _570  and  _571
REMARK  216  A    between atoms: _581  and  _583
REMARK  217  A    between atoms: _583  and  _584
REMARK  218  A    between atoms: _586  and  _588
REMARK  219  A    between atoms: _588  and  _589
REMARK  220  A    between atoms: _588  and  _591
REMARK  221  A    between atoms: _591  and  _592
REMARK  222  A    between atoms: _597  and  _599
REMARK  223  A    between atoms: _599  and  _600
REMARK  224  A    between atoms: _603  and  _605
REMARK  225  A    between atoms: _605  and  _606
REMARK  226  A    between atoms: _605  and  _608
REMARK  227  A    between atoms: _608  and  _609
REMARK  228  A    between atoms: _612  and  _614
REMARK  229  A    between atoms: _614  and  _615
REMARK  230  A    between atoms: _614  and  _617
REMARK  231  A    between atoms: _617  and  _618
REMARK  232  A    between atoms: _624  and  _626
REMARK  233  A    between atoms: _626  and  _627
REMARK  234  A    between atoms: _626  and  _629
REMARK  235  A    between atoms: _629  and  _630
REMARK  236  A    between atoms: _630  and  _631
REMARK  237  A    between atoms: _635  and  _636
REMARK  238  A    between atoms: _641  and  _643
REMARK  239  A    between atoms: _643  and  _644
REMARK  240  A    between atoms: _643  and  _646
REMARK  241  A    between atoms: _646  and  _647
REMARK  242  A    between atoms: _647  and  _648
REMARK  243  A    between atoms: _648  and  _649
REMARK                            x       y       z     vdW  Elec       q    Type
REMARK                         _______ _______ _______ _____ _____    ______ ____
ROOT
ATOM      1  O   HOH     1      -9.187  -0.218  11.127  0.00  0.00    +0.000 OA
ENDROOT
TORSDOF 0
REMARK  Name = ../refined-set-2016/3k02/3k02_pocket.pdb
REMARK  243 active torsions:
REMARK  status: ('A' for Active; 'I' for Inactive)
REMARK    1  A    between atoms: _1  and  _3
REMARK    2  A    between atoms: _3  and  _4
REMARK    3  A    between atoms: _3  and  _6
REMARK    4  A    between atoms: _6  and  _7
REMARK    5  A    between atoms: _10  and  _12
REMARK    6  A    between atoms: _12  and  _13
REMARK    7  A    between atoms: _12  and  _15
REMARK    8  A    between atoms: _15  and  _16
REMARK    9  A    between atoms: _19  and  _21
REMARK   10  A    between atoms: _21  and  _22
REMARK   11  A    between atoms: _21  and  _24
REMARK   12  A    between atoms: _24  and  _25
REMARK   13  A    between atoms: _27  and  _29
REMARK   14  A    between atoms: _29  and  _30
REMARK   15  A    between atoms: _29  and  _32
REMARK   16  A    between atoms: _32  and  _33
REMARK   17  A    between atoms: _38  and  _40
REMARK   18  A    between atoms: _40  and  _41
REMARK   19  A    between atoms: _40  and  _43
REMARK   20  A    between atoms: _43  and  _44
REMARK   21  A    between atoms: _44  and  _45
REMARK   22  A    between atoms: _48  and  _50
REMARK   23  A    between atoms: _50  and  _51
REMARK   24  A    between atoms: _54  and  _56
REMARK   25  A    between atoms: _56  and  _57
REMARK   26  A    between atoms: _56  and  _59
REMARK   27  A    between atoms: _59  and  _60
REMARK   28  A    between atoms: _60  and  _61
REMARK   29  A    between atoms: _64  and  _66
REMARK   30  A    between atoms: _66  and  _67
REMARK   31  A    between atoms: _66  and  _69
REMARK   32  A    between atoms: _69  and  _70
REMARK   33  A    between atoms: _70  and  _71
REMARK   34  A    between atoms: _71  and  _72
REMARK   35  A    between atoms: _72  and  _73
REMARK   36  A    between atoms: _77  and  _79
REMARK   37  A    between atoms: _79  and  _80
REMARK   38  A    between atoms: _79  and  _82
REMARK   39  A    between atoms: _82  and  _83
REMARK   40  A    between atoms: _88  and  _89
REMARK   41  A    between atoms: _91  and  _93
REMARK   42  A    between atoms: _93  and  _94
REMARK   43  A    between atoms: _93  and  _96
REMARK   44  A    between atoms: _96  and  _97
REMARK   45  A    between atoms: _102  and  _104
REMARK   46  A    between atoms: _104  and  _105
REMARK   47  A    between atoms: _104  and  _107
REMARK   48  A    between atoms: _111  and  _112
REMARK   49  A    between atoms: _117  and  _119
REMARK   50  A    between atoms: _119  and  _120
REMARK   51  A    between atoms: _119  and  _122
REMARK   52  A    between atoms: _122  and  _123
REMARK   53  A    between atoms: _129  and  _131
REMARK   54  A    between atoms: _131  and  _132
REMARK   55  A    between atoms: _134  and  _136
REMARK   56  A    between atoms: _136  and  _137
REMARK   57  A    between atoms: _136  and  _139
REMARK   58  A    between atoms: _139  and  _140
REMARK   59  A    between atoms: _140  and  _141
REMARK   60  A    between atoms: _144  and  _146
REMARK   61  A    between atoms: _146  and  _147
REMARK   62  A    between atoms: _150  and  _152
REMARK   63  A    between atoms: _152  and  _153
REMARK   64  A    between atoms: _152  and  _155
REMARK   65  A    between atoms: _155  and  _156
REMARK   66  A    between atoms: _161  and  _163
REMARK   67  A    between atoms: _163  and  _164
REMARK   68  A    between atoms: _167  and  _169
REMARK   69  A    between atoms: _169  and  _170
REMARK   70  A    between atoms: _169  and  _172
REMARK   71  A    between atoms: _172  and  _173
REMARK   72  A    between atoms: _173  and  _174
REMARK   73  A    between atoms: _174  and  _175
REMARK   74  A    between atoms: _175  and  _176
REMARK   75  A    between atoms: _180  and  _182
REMARK   76  A    between atoms: _182  and  _183
REMARK   77  A    between atoms: _182  and  _185
REMARK   78  A    between atoms: _185  and  _186
REMARK   79  A    between atoms: _186  and  _187
REMARK   80  A    between atoms: _187  and  _188
REMARK   81  A    between atoms: _197  and  _199
REMARK   82  A    between atoms: _199  and  _200
REMARK   83  A    between atoms: _199  and  _202
REMARK   84  A    between atoms: _202  and  _203
REMARK   85  A    between atoms: _203  and  _204
REMARK   86  A    between atoms: _207  and  _209
REMARK   87  A    between atoms: _209  and  _210
REMARK   88  A    between atoms: _209  and  _212
REMARK   89  A    between atoms: _215  and  _217
REMARK   90  A    between atoms: _217  and  _218
REMARK   91  A    between atoms: _221  and  _223
REMARK   92  A    between atoms: _223  and  _224
REMARK   93  A    between atoms: _223  and  _226
REMARK   94  A    between atoms: _226  and  _227
REMARK   95  A    between atoms: _237  and  _239
REMARK   96  A    between atoms: _239  and  _240
REMARK   97  A    between atoms: _239  and  _242
REMARK   98  A    between atoms: _245  and  _247
REMARK   99  A    between atoms: _247  and  _248
REMARK  100  A    between atoms: _247  and  _250
REMARK  101  A    between atoms: _250  and  _251
REMARK  102  A    between atoms: _254  and  _256
REMARK  103  A    between atoms: _256  and  _257
REMARK  104  A    between atoms: _256  and  _259
REMARK  105  A    between atoms: _259  and  _260
REMARK  106  A    between atoms: _266  and  _268
REMARK  107  A    between atoms: _268  and  _269
REMARK  108  A    between atoms: _268  and  _271
REMARK  109  A    between atoms: _271  and  _272
REMARK  110  A    between atoms: _272  and  _273
REMARK  111  A    between atoms: _278  and  _280
REMARK  112  A    between atoms: _280  and  _281
REMARK  113  A    between atoms: _280  and  _283
REMARK  114  A    between atoms: _286  and  _288
REMARK  115  A    between atoms: _288  and  _289
REMARK  116  A    between atoms: _288  and  _291
REMARK  117  A    between atoms: _291  and  _292
REMARK  118  A    between atoms: _295  and  _297
REMARK  119  A    between atoms: _297  and  _298
REMARK  120  A    between atoms: _297  and  _300
REMARK  121  A    between atoms: _300  and  _301
REMARK  122  A    between atoms: _304  and  _306
REMARK  123  A    between atoms: _306  and  _307
REMARK  124  A    between atoms: _306  and  _309
REMARK  125  A    between atoms: _309  and  _310
REMARK  126  A    between atoms: _313  and  _315
REMARK  127  A    between atoms: _315  and  _316
REMARK  128  A    between atoms: _315  and  _318
REMARK  129  A    between atoms: _318  and  _319
REMARK  130  A    between atoms: _322  and  _324
REMARK  131  A    between atoms: _324  and  _325
REMARK  132  A    between atoms: _324  and  _327
REMARK  133  A    between atoms: _327  and  _328
REMARK  134  A    between atoms: _328  and  _329
REMARK  135  A    between atoms: _329  and  _330
REMARK  136  A    between atoms: _339  and  _341
REMARK  137  A    between atoms: _341  and  _342
REMARK  138  A    between atoms: _341  and  _344
REMARK  139  A    between atoms: _344  and  _345
REMARK  140  A    between atoms: _348  and  _350
REMARK  141  A    between atoms: _350  and  _351
REMARK  142  A    between atoms: _350  and  _353
REMARK  143  A    between atoms: _353  and  _354
REMARK  144  A    between atoms: _358  and  _359
REMARK  145  A    between atoms: _364  and  _366
REMARK  146  A    between atoms: _366  and  _367
REMARK  147  A    between atoms: _366  and  _369
REMARK  148  A    between atoms: _369  and  _370
REMARK  149  A    between atoms: _375  and  _376
REMARK  150  A    between atoms: _378  and  _380
REMARK  151  A    between atoms: _380  and  _381
REMARK  152  A    between atoms: _380  and  _383
REMARK  153  A    between atoms: _383  and  _384
REMARK  154  A    between atoms: _394  and  _396
REMARK  155  A    between atoms: _396  and  _397
REMARK  156  A    between atoms: _396  and  _399
REMARK  157  A    between atoms: _399  and  _400
REMARK  158  A    between atoms: _406  and  _408
REMARK  159  A    between atoms: _408  and  _409
REMARK  160  A    between atoms: _408  and  _411
REMARK  161  A    between atoms: _411  and  _412
REMARK  162  A    between atoms: _415  and  _417
REMARK  163  A    between atoms: _417  and  _418
REMARK  164  A    between atoms: _417  and  _420
REMARK  165  A    between atoms: _420  and  _421
REMARK  166  A    between atoms: _431  and  _433
REMARK  167  A    between atoms: _433  and  _434
REMARK  168  A    between atoms: _433  and  _436
REMARK  169  A    between atoms: _436  and  _437
REMARK  170  A    between atoms: _437  and  _438
REMARK  171  A    between atoms: _440  and  _442
REMARK  172  A    between atoms: _442  and  _443
REMARK  173  A    between atoms: _442  and  _445
REMARK  174  A    between atoms: _445  and  _446
REMARK  175  A    between atoms: _451  and  _453
REMARK  176  A    between atoms: _453  and  _454
REMARK  177  A    between atoms: _457  and  _458
REMARK  178  A    between atoms: _463  and  _465
REMARK  179  A    between atoms: _465  and  _466
REMARK  180  A    between atoms: _465  and  _468
REMARK  181  A    between atoms: _468  and  _469
REMARK  182  A    between atoms: _479  and  _481
REMARK  183  A    between atoms: _481  and  _482
REMARK  184  A    between atoms: _486  and  _487
REMARK  185  A    between atoms: _492  and  _494
REMARK  186  A    between atoms: _494  and  _495
REMARK  187  A    between atoms: _494  and  _497
REMARK  188  A    between atoms: _497  and  _498
REMARK  189  A    between atoms: _498  and  _499
REMARK  190  A    between atoms: _504  and  _506
REMARK  191  A    between atoms: _506  and  _507
REMARK  192  A    between atoms: _509  and  _511
REMARK  193  A    between atoms: _511  and  _512
REMARK  194  A    between atoms: _514  and  _516
REMARK  195  A    between atoms: _516  and  _517
REMARK  196  A    between atoms: _516  and  _519
REMARK  197  A    between atoms: _519  and  _520
REMARK  198  A    between atoms: _530  and  _532
REMARK  199  A    between atoms: _532  and  _533
REMARK  200  A    between atoms: _532  and  _535
REMARK  201  A    between atoms: _535  and  _536
REMARK  202  A    between atoms: _539  and  _541
REMARK  203  A    between atoms: _541  and  _542
REMARK  204  A    between atoms: _541  and  _544
REMARK  205  A    between atoms: _544  and  _545
REMARK  206  A    between atoms: _548  and  _550
REMARK  207  A    between atoms: _550  and  _551
REMARK  208  A    between atoms: _550  and  _553
REMARK  209  A    between atoms: _553  and  _554
REMARK  210  A    between atoms: _554  and  _555
REMARK  211  A    between atoms: _555  and  _556
REMARK  212  A    between atoms: _565  and  _567
REMARK  213  A    between atoms: _567  and  _568
REMARK  214  A    between atoms: _567  and  _570
REMARK  215  A    between atoms: _570  and  _571
REMARK  216  A    between atoms: _581  and  _583
REMARK  217  A    between atoms: _583  and  _584
REMARK  218  A    between atoms: _586  and  _588
REMARK  219  A    between atoms: _588  and  _589
REMARK  220  A    between atoms: _588  and  _591
REMARK  221  A    between atoms: _591  and  _592
REMARK  222  A    between atoms: _597  and  _599
REMARK  223  A    between atoms: _599  and  _600
REMARK  224  A    between atoms: _603  and  _605
REMARK  225  A    between atoms: _605  and  _606
REMARK  226  A    between atoms: _605  and  _608
REMARK  227  A    between atoms: _608  and  _609
REMARK  228  A    between atoms: _612  and  _614
REMARK  229  A    between atoms: _614  and  _615
REMARK  230  A    between atoms: _614  and  _617
REMARK  231  A    between atoms: _617  and  _618
REMARK  232  A    between atoms: _624  and  _626
REMARK  233  A    between atoms: _626  and  _627
REMARK  234  A    between atoms: _626  and  _629
REMARK  235  A    between atoms: _629  and  _630
REMARK  236  A    between atoms: _630  and  _631
REMARK  237  A    between atoms: _635  and  _636
REMARK  238  A    between atoms: _641  and  _643
REMARK  239  A    between atoms: _643  and  _644
REMARK  240  A    between atoms: _643  and  _646
REMARK  241  A    between atoms: _646  and  _647
REMARK  242  A    between atoms: _647  and  _648
REMARK  243  A    between atoms: _648  and  _649
REMARK                            x       y       z     vdW  Elec       q    Type
REMARK                         _______ _______ _______ _____ _____    ______ ____
ROOT
ATOM      1  O   HOH     1      -9.577  -7.606  13.019  0.00  0.00    +0.000 OA
ENDROOT
TORSDOF 0
REMARK  Name = ../refined-set-2016/3k02/3k02_pocket.pdb
REMARK  243 active torsions:
REMARK  status: ('A' for Active; 'I' for Inactive)
REMARK    1  A    between atoms: _1  and  _3
REMARK    2  A    between atoms: _3  and  _4
REMARK    3  A    between atoms: _3  and  _6
REMARK    4  A    between atoms: _6  and  _7
REMARK    5  A    between atoms: _10  and  _12
REMARK    6  A    between atoms: _12  and  _13
REMARK    7  A    between atoms: _12  and  _15
REMARK    8  A    between atoms: _15  and  _16
REMARK    9  A    between atoms: _19  and  _21
REMARK   10  A    between atoms: _21  and  _22
REMARK   11  A    between atoms: _21  and  _24
REMARK   12  A    between atoms: _24  and  _25
REMARK   13  A    between atoms: _27  and  _29
REMARK   14  A    between atoms: _29  and  _30
REMARK   15  A    between atoms: _29  and  _32
REMARK   16  A    between atoms: _32  and  _33
REMARK   17  A    between atoms: _38  and  _40
REMARK   18  A    between atoms: _40  and  _41
REMARK   19  A    between atoms: _40  and  _43
REMARK   20  A    between atoms: _43  and  _44
REMARK   21  A    between atoms: _44  and  _45
REMARK   22  A    between atoms: _48  and  _50
REMARK   23  A    between atoms: _50  and  _51
REMARK   24  A    between atoms: _54  and  _56
REMARK   25  A    between atoms: _56  and  _57
REMARK   26  A    between atoms: _56  and  _59
REMARK   27  A    between atoms: _59  and  _60
REMARK   28  A    between atoms: _60  and  _61
REMARK   29  A    between atoms: _64  and  _66
REMARK   30  A    between atoms: _66  and  _67
REMARK   31  A    between atoms: _66  and  _69
REMARK   32  A    between atoms: _69  and  _70
REMARK   33  A    between atoms: _70  and  _71
REMARK   34  A    between atoms: _71  and  _72
REMARK   35  A    between atoms: _72  and  _73
REMARK   36  A    between atoms: _77  and  _79
REMARK   37  A    between atoms: _79  and  _80
REMARK   38  A    between atoms: _79  and  _82
REMARK   39  A    between atoms: _82  and  _83
REMARK   40  A    between atoms: _88  and  _89
REMARK   41  A    between atoms: _91  and  _93
REMARK   42  A    between atoms: _93  and  _94
REMARK   43  A    between atoms: _93  and  _96
REMARK   44  A    between atoms: _96  and  _97
REMARK   45  A    between atoms: _102  and  _104
REMARK   46  A    between atoms: _104  and  _105
REMARK   47  A    between atoms: _104  and  _107
REMARK   48  A    between atoms: _111  and  _112
REMARK   49  A    between atoms: _117  and  _119
REMARK   50  A    between atoms: _119  and  _120
REMARK   51  A    between atoms: _119  and  _122
REMARK   52  A    between atoms: _122  and  _123
REMARK   53  A    between atoms: _129  and  _131
REMARK   54  A    between atoms: _131  and  _132
REMARK   55  A    between atoms: _134  and  _136
REMARK   56  A    between atoms: _136  and  _137
REMARK   57  A    between atoms: _136  and  _139
REMARK   58  A    between atoms: _139  and  _140
REMARK   59  A    between atoms: _140  and  _141
REMARK   60  A    between atoms: _144  and  _146
REMARK   61  A    between atoms: _146  and  _147
REMARK   62  A    between atoms: _150  and  _152
REMARK   63  A    between atoms: _152  and  _153
REMARK   64  A    between atoms: _152  and  _155
REMARK   65  A    between atoms: _155  and  _156
REMARK   66  A    between atoms: _161  and  _163
REMARK   67  A    between atoms: _163  and  _164
REMARK   68  A    between atoms: _167  and  _169
REMARK   69  A    between atoms: _169  and  _170
REMARK   70  A    between atoms: _169  and  _172
REMARK   71  A    between atoms: _172  and  _173
REMARK   72  A    between atoms: _173  and  _174
REMARK   73  A    between atoms: _174  and  _175
REMARK   74  A    between atoms: _175  and  _176
REMARK   75  A    between atoms: _180  and  _182
REMARK   76  A    between atoms: _182  and  _183
REMARK   77  A    between atoms: _182  and  _185
REMARK   78  A    between atoms: _185  and  _186
REMARK   79  A    between atoms: _186  and  _187
REMARK   80  A    between atoms: _187  and  _188
REMARK   81  A    between atoms: _197  and  _199
REMARK   82  A    between atoms: _199  and  _200
REMARK   83  A    between atoms: _199  and  _202
REMARK   84  A    between atoms: _202  and  _203
REMARK   85  A    between atoms: _203  and  _204
REMARK   86  A    between atoms: _207  and  _209
REMARK   87  A    between atoms: _209  and  _210
REMARK   88  A    between atoms: _209  and  _212
REMARK   89  A    between atoms: _215  and  _217
REMARK   90  A    between atoms: _217  and  _218
REMARK   91  A    between atoms: _221  and  _223
REMARK   92  A    between atoms: _223  and  _224
REMARK   93  A    between atoms: _223  and  _226
REMARK   94  A    between atoms: _226  and  _227
REMARK   95  A    between atoms: _237  and  _239
REMARK   96  A    between atoms: _239  and  _240
REMARK   97  A    between atoms: _239  and  _242
REMARK   98  A    between atoms: _245  and  _247
REMARK   99  A    between atoms: _247  and  _248
REMARK  100  A    between atoms: _247  and  _250
REMARK  101  A    between atoms: _250  and  _251
REMARK  102  A    between atoms: _254  and  _256
REMARK  103  A    between atoms: _256  and  _257
REMARK  104  A    between atoms: _256  and  _259
REMARK  105  A    between atoms: _259  and  _260
REMARK  106  A    between atoms: _266  and  _268
REMARK  107  A    between atoms: _268  and  _269
REMARK  108  A    between atoms: _268  and  _271
REMARK  109  A    between atoms: _271  and  _272
REMARK  110  A    between atoms: _272  and  _273
REMARK  111  A    between atoms: _278  and  _280
REMARK  112  A    between atoms: _280  and  _281
REMARK  113  A    between atoms: _280  and  _283
REMARK  114  A    between atoms: _286  and  _288
REMARK  115  A    between atoms: _288  and  _289
REMARK  116  A    between atoms: _288  and  _291
REMARK  117  A    between atoms: _291  and  _292
REMARK  118  A    between atoms: _295  and  _297
REMARK  119  A    between atoms: _297  and  _298
REMARK  120  A    between atoms: _297  and  _300
REMARK  121  A    between atoms: _300  and  _301
REMARK  122  A    between atoms: _304  and  _306
REMARK  123  A    between atoms: _306  and  _307
REMARK  124  A    between atoms: _306  and  _309
REMARK  125  A    between atoms: _309  and  _310
REMARK  126  A    between atoms: _313  and  _315
REMARK  127  A    between atoms: _315  and  _316
REMARK  128  A    between atoms: _315  and  _318
REMARK  129  A    between atoms: _318  and  _319
REMARK  130  A    between atoms: _322  and  _324
REMARK  131  A    between atoms: _324  and  _325
REMARK  132  A    between atoms: _324  and  _327
REMARK  133  A    between atoms: _327  and  _328
REMARK  134  A    between atoms: _328  and  _329
REMARK  135  A    between atoms: _329  and  _330
REMARK  136  A    between atoms: _339  and  _341
REMARK  137  A    between atoms: _341  and  _342
REMARK  138  A    between atoms: _341  and  _344
REMARK  139  A    between atoms: _344  and  _345
REMARK  140  A    between atoms: _348  and  _350
REMARK  141  A    between atoms: _350  and  _351
REMARK  142  A    between atoms: _350  and  _353
REMARK  143  A    between atoms: _353  and  _354
REMARK  144  A    between atoms: _358  and  _359
REMARK  145  A    between atoms: _364  and  _366
REMARK  146  A    between atoms: _366  and  _367
REMARK  147  A    between atoms: _366  and  _369
REMARK  148  A    between atoms: _369  and  _370
REMARK  149  A    between atoms: _375  and  _376
REMARK  150  A    between atoms: _378  and  _380
REMARK  151  A    between atoms: _380  and  _381
REMARK  152  A    between atoms: _380  and  _383
REMARK  153  A    between atoms: _383  and  _384
REMARK  154  A    between atoms: _394  and  _396
REMARK  155  A    between atoms: _396  and  _397
REMARK  156  A    between atoms: _396  and  _399
REMARK  157  A    between atoms: _399  and  _400
REMARK  158  A    between atoms: _406  and  _408
REMARK  159  A    between atoms: _408  and  _409
REMARK  160  A    between atoms: _408  and  _411
REMARK  161  A    between atoms: _411  and  _412
REMARK  162  A    between atoms: _415  and  _417
REMARK  163  A    between atoms: _417  and  _418
REMARK  164  A    between atoms: _417  and  _420
REMARK  165  A    between atoms: _420  and  _421
REMARK  166  A    between atoms: _431  and  _433
REMARK  167  A    between atoms: _433  and  _434
REMARK  168  A    between atoms: _433  and  _436
REMARK  169  A    between atoms: _436  and  _437
REMARK  170  A    between atoms: _437  and  _438
REMARK  171  A    between atoms: _440  and  _442
REMARK  172  A    between atoms: _442  and  _443
REMARK  173  A    between atoms: _442  and  _445
REMARK  174  A    between atoms: _445  and  _446
REMARK  175  A    between atoms: _451  and  _453
REMARK  176  A    between atoms: _453  and  _454
REMARK  177  A    between atoms: _457  and  _458
REMARK  178  A    between atoms: _463  and  _465
REMARK  179  A    between atoms: _465  and  _466
REMARK  180  A    between atoms: _465  and  _468
REMARK  181  A    between atoms: _468  and  _469
REMARK  182  A    between atoms: _479  and  _481
REMARK  183  A    between atoms: _481  and  _482
REMARK  184  A    between atoms: _486  and  _487
REMARK  185  A    between atoms: _492  and  _494
REMARK  186  A    between atoms: _494  and  _495
REMARK  187  A    between atoms: _494  and  _497
REMARK  188  A    between atoms: _497  and  _498
REMARK  189  A    between atoms: _498  and  _499
REMARK  190  A    between atoms: _504  and  _506
REMARK  191  A    between atoms: _506  and  _507
REMARK  192  A    between atoms: _509  and  _511
REMARK  193  A    between atoms: _511  and  _512
REMARK  194  A    between atoms: _514  and  _516
REMARK  195  A    between atoms: _516  and  _517
REMARK  196  A    between atoms: _516  and  _519
REMARK  197  A    between atoms: _519  and  _520
REMARK  198  A    between atoms: _530  and  _532
REMARK  199  A    between atoms: _532  and  _533
REMARK  200  A    between atoms: _532  and  _535
REMARK  201  A    between atoms: _535  and  _536
REMARK  202  A    between atoms: _539  and  _541
REMARK  203  A    between atoms: _541  and  _542
REMARK  204  A    between atoms: _541  and  _544
REMARK  205  A    between atoms: _544  and  _545
REMARK  206  A    between atoms: _548  and  _550
REMARK  207  A    between atoms: _550  and  _551
REMARK  208  A    between atoms: _550  and  _553
REMARK  209  A    between atoms: _553  and  _554
REMARK  210  A    between atoms: _554  and  _555
REMARK  211  A    between atoms: _555  and  _556
REMARK  212  A    between atoms: _565  and  _567
REMARK  213  A    between atoms: _567  and  _568
REMARK  214  A    between atoms: _567  and  _570
REMARK  215  A    between atoms: _570  and  _571
REMARK  216  A    between atoms: _581  and  _583
REMARK  217  A    between atoms: _583  and  _584
REMARK  218  A    between atoms: _586  and  _588
REMARK  219  A    between atoms: _588  and  _589
REMARK  220  A    between atoms: _588  and  _591
REMARK  221  A    between atoms: _591  and  _592
REMARK  222  A    between atoms: _597  and  _599
REMARK  223  A    between atoms: _599  and  _600
REMARK  224  A    between atoms: _603  and  _605
REMARK  225  A    between atoms: _605  and  _606
REMARK  226  A    between atoms: _605  and  _608
REMARK  227  A    between atoms: _608  and  _609
REMARK  228  A    between atoms: _612  and  _614
REMARK  229  A    between atoms: _614  and  _615
REMARK  230  A    between atoms: _614  and  _617
REMARK  231  A    between atoms: _617  and  _618
REMARK  232  A    between atoms: _624  and  _626
REMARK  233  A    between atoms: _626  and  _627
REMARK  234  A    between atoms: _626  and  _629
REMARK  235  A    between atoms: _629  and  _630
REMARK  236  A    between atoms: _630  and  _631
REMARK  237  A    between atoms: _635  and  _636
REMARK  238  A    between atoms: _641  and  _643
REMARK  239  A    between atoms: _643  and  _644
REMARK  240  A    between atoms: _643  and  _646
REMARK  241  A    between atoms: _646  and  _647
REMARK  242  A    between atoms: _647  and  _648
REMARK  243  A    between atoms: _648  and  _649
REMARK                            x       y       z     vdW  Elec       q    Type
REMARK                         _______ _______ _______ _____ _____    ______ ____
ROOT
ATOM      1  O   HOH     1      -4.440 -20.963  15.219  0.00  0.00    +0.000 OA
ENDROOT
TORSDOF 0
REMARK  Name = ../refined-set-2016/3k02/3k02_pocket.pdb
REMARK  243 active torsions:
REMARK  status: ('A' for Active; 'I' for Inactive)
REMARK    1  A    between atoms: _1  and  _3
REMARK    2  A    between atoms: _3  and  _4
REMARK    3  A    between atoms: _3  and  _6
REMARK    4  A    between atoms: _6  and  _7
REMARK    5  A    between atoms: _10  and  _12
REMARK    6  A    between atoms: _12  and  _13
REMARK    7  A    between atoms: _12  and  _15
REMARK    8  A    between atoms: _15  and  _16
REMARK    9  A    between atoms: _19  and  _21
REMARK   10  A    between atoms: _21  and  _22
REMARK   11  A    between atoms: _21  and  _24
REMARK   12  A    between atoms: _24  and  _25
REMARK   13  A    between atoms: _27  and  _29
REMARK   14  A    between atoms: _29  and  _30
REMARK   15  A    between atoms: _29  and  _32
REMARK   16  A    between atoms: _32  and  _33
REMARK   17  A    between atoms: _38  and  _40
REMARK   18  A    between atoms: _40  and  _41
REMARK   19  A    between atoms: _40  and  _43
REMARK   20  A    between atoms: _43  and  _44
REMARK   21  A    between atoms: _44  and  _45
REMARK   22  A    between atoms: _48  and  _50
REMARK   23  A    between atoms: _50  and  _51
REMARK   24  A    between atoms: _54  and  _56
REMARK   25  A    between atoms: _56  and  _57
REMARK   26  A    between atoms: _56  and  _59
REMARK   27  A    between atoms: _59  and  _60
REMARK   28  A    between atoms: _60  and  _61
REMARK   29  A    between atoms: _64  and  _66
REMARK   30  A    between atoms: _66  and  _67
REMARK   31  A    between atoms: _66  and  _69
REMARK   32  A    between atoms: _69  and  _70
REMARK   33  A    between atoms: _70  and  _71
REMARK   34  A    between atoms: _71  and  _72
REMARK   35  A    between atoms: _72  and  _73
REMARK   36  A    between atoms: _77  and  _79
REMARK   37  A    between atoms: _79  and  _80
REMARK   38  A    between atoms: _79  and  _82
REMARK   39  A    between atoms: _82  and  _83
REMARK   40  A    between atoms: _88  and  _89
REMARK   41  A    between atoms: _91  and  _93
REMARK   42  A    between atoms: _93  and  _94
REMARK   43  A    between atoms: _93  and  _96
REMARK   44  A    between atoms: _96  and  _97
REMARK   45  A    between atoms: _102  and  _104
REMARK   46  A    between atoms: _104  and  _105
REMARK   47  A    between atoms: _104  and  _107
REMARK   48  A    between atoms: _111  and  _112
REMARK   49  A    between atoms: _117  and  _119
REMARK   50  A    between atoms: _119  and  _120
REMARK   51  A    between atoms: _119  and  _122
REMARK   52  A    between atoms: _122  and  _123
REMARK   53  A    between atoms: _129  and  _131
REMARK   54  A    between atoms: _131  and  _132
REMARK   55  A    between atoms: _134  and  _136
REMARK   56  A    between atoms: _136  and  _137
REMARK   57  A    between atoms: _136  and  _139
REMARK   58  A    between atoms: _139  and  _140
REMARK   59  A    between atoms: _140  and  _141
REMARK   60  A    between atoms: _144  and  _146
REMARK   61  A    between atoms: _146  and  _147
REMARK   62  A    between atoms: _150  and  _152
REMARK   63  A    between atoms: _152  and  _153
REMARK   64  A    between atoms: _152  and  _155
REMARK   65  A    between atoms: _155  and  _156
REMARK   66  A    between atoms: _161  and  _163
REMARK   67  A    between atoms: _163  and  _164
REMARK   68  A    between atoms: _167  and  _169
REMARK   69  A    between atoms: _169  and  _170
REMARK   70  A    between atoms: _169  and  _172
REMARK   71  A    between atoms: _172  and  _173
REMARK   72  A    between atoms: _173  and  _174
REMARK   73  A    between atoms: _174  and  _175
REMARK   74  A    between atoms: _175  and  _176
REMARK   75  A    between atoms: _180  and  _182
REMARK   76  A    between atoms: _182  and  _183
REMARK   77  A    between atoms: _182  and  _185
REMARK   78  A    between atoms: _185  and  _186
REMARK   79  A    between atoms: _186  and  _187
REMARK   80  A    between atoms: _187  and  _188
REMARK   81  A    between atoms: _197  and  _199
REMARK   82  A    between atoms: _199  and  _200
REMARK   83  A    between atoms: _199  and  _202
REMARK   84  A    between atoms: _202  and  _203
REMARK   85  A    between atoms: _203  and  _204
REMARK   86  A    between atoms: _207  and  _209
REMARK   87  A    between atoms: _209  and  _210
REMARK   88  A    between atoms: _209  and  _212
REMARK   89  A    between atoms: _215  and  _217
REMARK   90  A    between atoms: _217  and  _218
REMARK   91  A    between atoms: _221  and  _223
REMARK   92  A    between atoms: _223  and  _224
REMARK   93  A    between atoms: _223  and  _226
REMARK   94  A    between atoms: _226  and  _227
REMARK   95  A    between atoms: _237  and  _239
REMARK   96  A    between atoms: _239  and  _240
REMARK   97  A    between atoms: _239  and  _242
REMARK   98  A    between atoms: _245  and  _247
REMARK   99  A    between atoms: _247  and  _248
REMARK  100  A    between atoms: _247  and  _250
REMARK  101  A    between atoms: _250  and  _251
REMARK  102  A    between atoms: _254  and  _256
REMARK  103  A    between atoms: _256  and  _257
REMARK  104  A    between atoms: _256  and  _259
REMARK  105  A    between atoms: _259  and  _260
REMARK  106  A    between atoms: _266  and  _268
REMARK  107  A    between atoms: _268  and  _269
REMARK  108  A    between atoms: _268  and  _271
REMARK  109  A    between atoms: _271  and  _272
REMARK  110  A    between atoms: _272  and  _273
REMARK  111  A    between atoms: _278  and  _280
REMARK  112  A    between atoms: _280  and  _281
REMARK  113  A    between atoms: _280  and  _283
REMARK  114  A    between atoms: _286  and  _288
REMARK  115  A    between atoms: _288  and  _289
REMARK  116  A    between atoms: _288  and  _291
REMARK  117  A    between atoms: _291  and  _292
REMARK  118  A    between atoms: _295  and  _297
REMARK  119  A    between atoms: _297  and  _298
REMARK  120  A    between atoms: _297  and  _300
REMARK  121  A    between atoms: _300  and  _301
REMARK  122  A    between atoms: _304  and  _306
REMARK  123  A    between atoms: _306  and  _307
REMARK  124  A    between atoms: _306  and  _309
REMARK  125  A    between atoms: _309  and  _310
REMARK  126  A    between atoms: _313  and  _315
REMARK  127  A    between atoms: _315  and  _316
REMARK  128  A    between atoms: _315  and  _318
REMARK  129  A    between atoms: _318  and  _319
REMARK  130  A    between atoms: _322  and  _324
REMARK  131  A    between atoms: _324  and  _325
REMARK  132  A    between atoms: _324  and  _327
REMARK  133  A    between atoms: _327  and  _328
REMARK  134  A    between atoms: _328  and  _329
REMARK  135  A    between atoms: _329  and  _330
REMARK  136  A    between atoms: _339  and  _341
REMARK  137  A    between atoms: _341  and  _342
REMARK  138  A    between atoms: _341  and  _344
REMARK  139  A    between atoms: _344  and  _345
REMARK  140  A    between atoms: _348  and  _350
REMARK  141  A    between atoms: _350  and  _351
REMARK  142  A    between atoms: _350  and  _353
REMARK  143  A    between atoms: _353  and  _354
REMARK  144  A    between atoms: _358  and  _359
REMARK  145  A    between atoms: _364  and  _366
REMARK  146  A    between atoms: _366  and  _367
REMARK  147  A    between atoms: _366  and  _369
REMARK  148  A    between atoms: _369  and  _370
REMARK  149  A    between atoms: _375  and  _376
REMARK  150  A    between atoms: _378  and  _380
REMARK  151  A    between atoms: _380  and  _381
REMARK  152  A    between atoms: _380  and  _383
REMARK  153  A    between atoms: _383  and  _384
REMARK  154  A    between atoms: _394  and  _396
REMARK  155  A    between atoms: _396  and  _397
REMARK  156  A    between atoms: _396  and  _399
REMARK  157  A    between atoms: _399  and  _400
REMARK  158  A    between atoms: _406  and  _408
REMARK  159  A    between atoms: _408  and  _409
REMARK  160  A    between atoms: _408  and  _411
REMARK  161  A    between atoms: _411  and  _412
REMARK  162  A    between atoms: _415  and  _417
REMARK  163  A    between atoms: _417  and  _418
REMARK  164  A    between atoms: _417  and  _420
REMARK  165  A    between atoms: _420  and  _421
REMARK  166  A    between atoms: _431  and  _433
REMARK  167  A    between atoms: _433  and  _434
REMARK  168  A    between atoms: _433  and  _436
REMARK  169  A    between atoms: _436  and  _437
REMARK  170  A    between atoms: _437  and  _438
REMARK  171  A    between atoms: _440  and  _442
REMARK  172  A    between atoms: _442  and  _443
REMARK  173  A    between atoms: _442  and  _445
REMARK  174  A    between atoms: _445  and  _446
REMARK  175  A    between atoms: _451  and  _453
REMARK  176  A    between atoms: _453  and  _454
REMARK  177  A    between atoms: _457  and  _458
REMARK  178  A    between atoms: _463  and  _465
REMARK  179  A    between atoms: _465  and  _466
REMARK  180  A    between atoms: _465  and  _468
REMARK  181  A    between atoms: _468  and  _469
REMARK  182  A    between atoms: _479  and  _481
REMARK  183  A    between atoms: _481  and  _482
REMARK  184  A    between atoms: _486  and  _487
REMARK  185  A    between atoms: _492  and  _494
REMARK  186  A    between atoms: _494  and  _495
REMARK  187  A    between atoms: _494  and  _497
REMARK  188  A    between atoms: _497  and  _498
REMARK  189  A    between atoms: _498  and  _499
REMARK  190  A    between atoms: _504  and  _506
REMARK  191  A    between atoms: _506  and  _507
REMARK  192  A    between atoms: _509  and  _511
REMARK  193  A    between atoms: _511  and  _512
REMARK  194  A    between atoms: _514  and  _516
REMARK  195  A    between atoms: _516  and  _517
REMARK  196  A    between atoms: _516  and  _519
REMARK  197  A    between atoms: _519  and  _520
REMARK  198  A    between atoms: _530  and  _532
REMARK  199  A    between atoms: _532  and  _533
REMARK  200  A    between atoms: _532  and  _535
REMARK  201  A    between atoms: _535  and  _536
REMARK  202  A    between atoms: _539  and  _541
REMARK  203  A    between atoms: _541  and  _542
REMARK  204  A    between atoms: _541  and  _544
REMARK  205  A    between atoms: _544  and  _545
REMARK  206  A    between atoms: _548  and  _550
REMARK  207  A    between atoms: _550  and  _551
REMARK  208  A    between atoms: _550  and  _553
REMARK  209  A    between atoms: _553  and  _554
REMARK  210  A    between atoms: _554  and  _555
REMARK  211  A    between atoms: _555  and  _556
REMARK  212  A    between atoms: _565  and  _567
REMARK  213  A    between atoms: _567  and  _568
REMARK  214  A    between atoms: _567  and  _570
REMARK  215  A    between atoms: _570  and  _571
REMARK  216  A    between atoms: _581  and  _583
REMARK  217  A    between atoms: _583  and  _584
REMARK  218  A    between atoms: _586  and  _588
REMARK  219  A    between atoms: _588  and  _589
REMARK  220  A    between atoms: _588  and  _591
REMARK  221  A    between atoms: _591  and  _592
REMARK  222  A    between atoms: _597  and  _599
REMARK  223  A    between atoms: _599  and  _600
REMARK  224  A    between atoms: _603  and  _605
REMARK  225  A    between atoms: _605  and  _606
REMARK  226  A    between atoms: _605  and  _608
REMARK  227  A    between atoms: _608  and  _609
REMARK  228  A    between atoms: _612  and  _614
REMARK  229  A    between atoms: _614  and  _615
REMARK  230  A    between atoms: _614  and  _617
REMARK  231  A    between atoms: _617  and  _618
REMARK  232  A    between atoms: _624  and  _626
REMARK  233  A    between atoms: _626  and  _627
REMARK  234  A    between atoms: _626  and  _629
REMARK  235  A    between atoms: _629  and  _630
REMARK  236  A    between atoms: _630  and  _631
REMARK  237  A    between atoms: _635  and  _636
REMARK  238  A    between atoms: _641  and  _643
REMARK  239  A    between atoms: _643  and  _644
REMARK  240  A    between atoms: _643  and  _646
REMARK  241  A    between atoms: _646  and  _647
REMARK  242  A    between atoms: _647  and  _648
REMARK  243  A    between atoms: _648  and  _649
REMARK                            x       y       z     vdW  Elec       q    Type
REMARK                         _______ _______ _______ _____ _____    ______ ____
ROOT
ATOM      1  O   HOH     1      -2.784  -0.690  25.516  0.00  0.00    +0.000 OA
ENDROOT
TORSDOF 0
REMARK  Name = ../refined-set-2016/3k02/3k02_pocket.pdb
REMARK  243 active torsions:
REMARK  status: ('A' for Active; 'I' for Inactive)
REMARK    1  A    between atoms: _1  and  _3
REMARK    2  A    between atoms: _3  and  _4
REMARK    3  A    between atoms: _3  and  _6
REMARK    4  A    between atoms: _6  and  _7
REMARK    5  A    between atoms: _10  and  _12
REMARK    6  A    between atoms: _12  and  _13
REMARK    7  A    between atoms: _12  and  _15
REMARK    8  A    between atoms: _15  and  _16
REMARK    9  A    between atoms: _19  and  _21
REMARK   10  A    between atoms: _21  and  _22
REMARK   11  A    between atoms: _21  and  _24
REMARK   12  A    between atoms: _24  and  _25
REMARK   13  A    between atoms: _27  and  _29
REMARK   14  A    between atoms: _29  and  _30
REMARK   15  A    between atoms: _29  and  _32
REMARK   16  A    between atoms: _32  and  _33
REMARK   17  A    between atoms: _38  and  _40
REMARK   18  A    between atoms: _40  and  _41
REMARK   19  A    between atoms: _40  and  _43
REMARK   20  A    between atoms: _43  and  _44
REMARK   21  A    between atoms: _44  and  _45
REMARK   22  A    between atoms: _48  and  _50
REMARK   23  A    between atoms: _50  and  _51
REMARK   24  A    between atoms: _54  and  _56
REMARK   25  A    between atoms: _56  and  _57
REMARK   26  A    between atoms: _56  and  _59
REMARK   27  A    between atoms: _59  and  _60
REMARK   28  A    between atoms: _60  and  _61
REMARK   29  A    between atoms: _64  and  _66
REMARK   30  A    between atoms: _66  and  _67
REMARK   31  A    between atoms: _66  and  _69
REMARK   32  A    between atoms: _69  and  _70
REMARK   33  A    between atoms: _70  and  _71
REMARK   34  A    between atoms: _71  and  _72
REMARK   35  A    between atoms: _72  and  _73
REMARK   36  A    between atoms: _77  and  _79
REMARK   37  A    between atoms: _79  and  _80
REMARK   38  A    between atoms: _79  and  _82
REMARK   39  A    between atoms: _82  and  _83
REMARK   40  A    between atoms: _88  and  _89
REMARK   41  A    between atoms: _91  and  _93
REMARK   42  A    between atoms: _93  and  _94
REMARK   43  A    between atoms: _93  and  _96
REMARK   44  A    between atoms: _96  and  _97
REMARK   45  A    between atoms: _102  and  _104
REMARK   46  A    between atoms: _104  and  _105
REMARK   47  A    between atoms: _104  and  _107
REMARK   48  A    between atoms: _111  and  _112
REMARK   49  A    between atoms: _117  and  _119
REMARK   50  A    between atoms: _119  and  _120
REMARK   51  A    between atoms: _119  and  _122
REMARK   52  A    between atoms: _122  and  _123
REMARK   53  A    between atoms: _129  and  _131
REMARK   54  A    between atoms: _131  and  _132
REMARK   55  A    between atoms: _134  and  _136
REMARK   56  A    between atoms: _136  and  _137
REMARK   57  A    between atoms: _136  and  _139
REMARK   58  A    between atoms: _139  and  _140
REMARK   59  A    between atoms: _140  and  _141
REMARK   60  A    between atoms: _144  and  _146
REMARK   61  A    between atoms: _146  and  _147
REMARK   62  A    between atoms: _150  and  _152
REMARK   63  A    between atoms: _152  and  _153
REMARK   64  A    between atoms: _152  and  _155
REMARK   65  A    between atoms: _155  and  _156
REMARK   66  A    between atoms: _161  and  _163
REMARK   67  A    between atoms: _163  and  _164
REMARK   68  A    between atoms: _167  and  _169
REMARK   69  A    between atoms: _169  and  _170
REMARK   70  A    between atoms: _169  and  _172
REMARK   71  A    between atoms: _172  and  _173
REMARK   72  A    between atoms: _173  and  _174
REMARK   73  A    between atoms: _174  and  _175
REMARK   74  A    between atoms: _175  and  _176
REMARK   75  A    between atoms: _180  and  _182
REMARK   76  A    between atoms: _182  and  _183
REMARK   77  A    between atoms: _182  and  _185
REMARK   78  A    between atoms: _185  and  _186
REMARK   79  A    between atoms: _186  and  _187
REMARK   80  A    between atoms: _187  and  _188
REMARK   81  A    between atoms: _197  and  _199
REMARK   82  A    between atoms: _199  and  _200
REMARK   83  A    between atoms: _199  and  _202
REMARK   84  A    between atoms: _202  and  _203
REMARK   85  A    between atoms: _203  and  _204
REMARK   86  A    between atoms: _207  and  _209
REMARK   87  A    between atoms: _209  and  _210
REMARK   88  A    between atoms: _209  and  _212
REMARK   89  A    between atoms: _215  and  _217
REMARK   90  A    between atoms: _217  and  _218
REMARK   91  A    between atoms: _221  and  _223
REMARK   92  A    between atoms: _223  and  _224
REMARK   93  A    between atoms: _223  and  _226
REMARK   94  A    between atoms: _226  and  _227
REMARK   95  A    between atoms: _237  and  _239
REMARK   96  A    between atoms: _239  and  _240
REMARK   97  A    between atoms: _239  and  _242
REMARK   98  A    between atoms: _245  and  _247
REMARK   99  A    between atoms: _247  and  _248
REMARK  100  A    between atoms: _247  and  _250
REMARK  101  A    between atoms: _250  and  _251
REMARK  102  A    between atoms: _254  and  _256
REMARK  103  A    between atoms: _256  and  _257
REMARK  104  A    between atoms: _256  and  _259
REMARK  105  A    between atoms: _259  and  _260
REMARK  106  A    between atoms: _266  and  _268
REMARK  107  A    between atoms: _268  and  _269
REMARK  108  A    between atoms: _268  and  _271
REMARK  109  A    between atoms: _271  and  _272
REMARK  110  A    between atoms: _272  and  _273
REMARK  111  A    between atoms: _278  and  _280
REMARK  112  A    between atoms: _280  and  _281
REMARK  113  A    between atoms: _280  and  _283
REMARK  114  A    between atoms: _286  and  _288
REMARK  115  A    between atoms: _288  and  _289
REMARK  116  A    between atoms: _288  and  _291
REMARK  117  A    between atoms: _291  and  _292
REMARK  118  A    between atoms: _295  and  _297
REMARK  119  A    between atoms: _297  and  _298
REMARK  120  A    between atoms: _297  and  _300
REMARK  121  A    between atoms: _300  and  _301
REMARK  122  A    between atoms: _304  and  _306
REMARK  123  A    between atoms: _306  and  _307
REMARK  124  A    between atoms: _306  and  _309
REMARK  125  A    between atoms: _309  and  _310
REMARK  126  A    between atoms: _313  and  _315
REMARK  127  A    between atoms: _315  and  _316
REMARK  128  A    between atoms: _315  and  _318
REMARK  129  A    between atoms: _318  and  _319
REMARK  130  A    between atoms: _322  and  _324
REMARK  131  A    between atoms: _324  and  _325
REMARK  132  A    between atoms: _324  and  _327
REMARK  133  A    between atoms: _327  and  _328
REMARK  134  A    between atoms: _328  and  _329
REMARK  135  A    between atoms: _329  and  _330
REMARK  136  A    between atoms: _339  and  _341
REMARK  137  A    between atoms: _341  and  _342
REMARK  138  A    between atoms: _341  and  _344
REMARK  139  A    between atoms: _344  and  _345
REMARK  140  A    between atoms: _348  and  _350
REMARK  141  A    between atoms: _350  and  _351
REMARK  142  A    between atoms: _350  and  _353
REMARK  143  A    between atoms: _353  and  _354
REMARK  144  A    between atoms: _358  and  _359
REMARK  145  A    between atoms: _364  and  _366
REMARK  146  A    between atoms: _366  and  _367
REMARK  147  A    between atoms: _366  and  _369
REMARK  148  A    between atoms: _369  and  _370
REMARK  149  A    between atoms: _375  and  _376
REMARK  150  A    between atoms: _378  and  _380
REMARK  151  A    between atoms: _380  and  _381
REMARK  152  A    between atoms: _380  and  _383
REMARK  153  A    between atoms: _383  and  _384
REMARK  154  A    between atoms: _394  and  _396
REMARK  155  A    between atoms: _396  and  _397
REMARK  156  A    between atoms: _396  and  _399
REMARK  157  A    between atoms: _399  and  _400
REMARK  158  A    between atoms: _406  and  _408
REMARK  159  A    between atoms: _408  and  _409
REMARK  160  A    between atoms: _408  and  _411
REMARK  161  A    between atoms: _411  and  _412
REMARK  162  A    between atoms: _415  and  _417
REMARK  163  A    between atoms: _417  and  _418
REMARK  164  A    between atoms: _417  and  _420
REMARK  165  A    between atoms: _420  and  _421
REMARK  166  A    between atoms: _431  and  _433
REMARK  167  A    between atoms: _433  and  _434
REMARK  168  A    between atoms: _433  and  _436
REMARK  169  A    between atoms: _436  and  _437
REMARK  170  A    between atoms: _437  and  _438
REMARK  171  A    between atoms: _440  and  _442
REMARK  172  A    between atoms: _442  and  _443
REMARK  173  A    between atoms: _442  and  _445
REMARK  174  A    between atoms: _445  and  _446
REMARK  175  A    between atoms: _451  and  _453
REMARK  176  A    between atoms: _453  and  _454
REMARK  177  A    between atoms: _457  and  _458
REMARK  178  A    between atoms: _463  and  _465
REMARK  179  A    between atoms: _465  and  _466
REMARK  180  A    between atoms: _465  and  _468
REMARK  181  A    between atoms: _468  and  _469
REMARK  182  A    between atoms: _479  and  _481
REMARK  183  A    between atoms: _481  and  _482
REMARK  184  A    between atoms: _486  and  _487
REMARK  185  A    between atoms: _492  and  _494
REMARK  186  A    between atoms: _494  and  _495
REMARK  187  A    between atoms: _494  and  _497
REMARK  188  A    between atoms: _497  and  _498
REMARK  189  A    between atoms: _498  and  _499
REMARK  190  A    between atoms: _504  and  _506
REMARK  191  A    between atoms: _506  and  _507
REMARK  192  A    between atoms: _509  and  _511
REMARK  193  A    between atoms: _511  and  _512
REMARK  194  A    between atoms: _514  and  _516
REMARK  195  A    between atoms: _516  and  _517
REMARK  196  A    between atoms: _516  and  _519
REMARK  197  A    between atoms: _519  and  _520
REMARK  198  A    between atoms: _530  and  _532
REMARK  199  A    between atoms: _532  and  _533
REMARK  200  A    between atoms: _532  and  _535
REMARK  201  A    between atoms: _535  and  _536
REMARK  202  A    between atoms: _539  and  _541
REMARK  203  A    between atoms: _541  and  _542
REMARK  204  A    between atoms: _541  and  _544
REMARK  205  A    between atoms: _544  and  _545
REMARK  206  A    between atoms: _548  and  _550
REMARK  207  A    between atoms: _550  and  _551
REMARK  208  A    between atoms: _550  and  _553
REMARK  209  A    between atoms: _553  and  _554
REMARK  210  A    between atoms: _554  and  _555
REMARK  211  A    between atoms: _555  and  _556
REMARK  212  A    between atoms: _565  and  _567
REMARK  213  A    between atoms: _567  and  _568
REMARK  214  A    between atoms: _567  and  _570
REMARK  215  A    between atoms: _570  and  _571
REMARK  216  A    between atoms: _581  and  _583
REMARK  217  A    between atoms: _583  and  _584
REMARK  218  A    between atoms: _586  and  _588
REMARK  219  A    between atoms: _588  and  _589
REMARK  220  A    between atoms: _588  and  _591
REMARK  221  A    between atoms: _591  and  _592
REMARK  222  A    between atoms: _597  and  _599
REMARK  223  A    between atoms: _599  and  _600
REMARK  224  A    between atoms: _603  and  _605
REMARK  225  A    between atoms: _605  and  _606
REMARK  226  A    between atoms: _605  and  _608
REMARK  227  A    between atoms: _608  and  _609
REMARK  228  A    between atoms: _612  and  _614
REMARK  229  A    between atoms: _614  and  _615
REMARK  230  A    between atoms: _614  and  _617
REMARK  231  A    between atoms: _617  and  _618
REMARK  232  A    between atoms: _624  and  _626
REMARK  233  A    between atoms: _626  and  _627
REMARK  234  A    between atoms: _626  and  _629
REMARK  235  A    between atoms: _629  and  _630
REMARK  236  A    between atoms: _630  and  _631
REMARK  237  A    between atoms: _635  and  _636
REMARK  238  A    between atoms: _641  and  _643
REMARK  239  A    between atoms: _643  and  _644
REMARK  240  A    between atoms: _643  and  _646
REMARK  241  A    between atoms: _646  and  _647
REMARK  242  A    between atoms: _647  and  _648
REMARK  243  A    between atoms: _648  and  _649
REMARK                            x       y       z     vdW  Elec       q    Type
REMARK                         _______ _______ _______ _____ _____    ______ ____
ROOT
ATOM      1  O   HOH     1       0.900 -12.951  27.956  0.00  0.00    +0.000 OA
ENDROOT
TORSDOF 0
REMARK  Name = ../refined-set-2016/3k02/3k02_pocket.pdb
REMARK  243 active torsions:
REMARK  status: ('A' for Active; 'I' for Inactive)
REMARK    1  A    between atoms: _1  and  _3
REMARK    2  A    between atoms: _3  and  _4
REMARK    3  A    between atoms: _3  and  _6
REMARK    4  A    between atoms: _6  and  _7
REMARK    5  A    between atoms: _10  and  _12
REMARK    6  A    between atoms: _12  and  _13
REMARK    7  A    between atoms: _12  and  _15
REMARK    8  A    between atoms: _15  and  _16
REMARK    9  A    between atoms: _19  and  _21
REMARK   10  A    between atoms: _21  and  _22
REMARK   11  A    between atoms: _21  and  _24
REMARK   12  A    between atoms: _24  and  _25
REMARK   13  A    between atoms: _27  and  _29
REMARK   14  A    between atoms: _29  and  _30
REMARK   15  A    between atoms: _29  and  _32
REMARK   16  A    between atoms: _32  and  _33
REMARK   17  A    between atoms: _38  and  _40
REMARK   18  A    between atoms: _40  and  _41
REMARK   19  A    between atoms: _40  and  _43
REMARK   20  A    between atoms: _43  and  _44
REMARK   21  A    between atoms: _44  and  _45
REMARK   22  A    between atoms: _48  and  _50
REMARK   23  A    between atoms: _50  and  _51
REMARK   24  A    between atoms: _54  and  _56
REMARK   25  A    between atoms: _56  and  _57
REMARK   26  A    between atoms: _56  and  _59
REMARK   27  A    between atoms: _59  and  _60
REMARK   28  A    between atoms: _60  and  _61
REMARK   29  A    between atoms: _64  and  _66
REMARK   30  A    between atoms: _66  and  _67
REMARK   31  A    between atoms: _66  and  _69
REMARK   32  A    between atoms: _69  and  _70
REMARK   33  A    between atoms: _70  and  _71
REMARK   34  A    between atoms: _71  and  _72
REMARK   35  A    between atoms: _72  and  _73
REMARK   36  A    between atoms: _77  and  _79
REMARK   37  A    between atoms: _79  and  _80
REMARK   38  A    between atoms: _79  and  _82
REMARK   39  A    between atoms: _82  and  _83
REMARK   40  A    between atoms: _88  and  _89
REMARK   41  A    between atoms: _91  and  _93
REMARK   42  A    between atoms: _93  and  _94
REMARK   43  A    between atoms: _93  and  _96
REMARK   44  A    between atoms: _96  and  _97
REMARK   45  A    between atoms: _102  and  _104
REMARK   46  A    between atoms: _104  and  _105
REMARK   47  A    between atoms: _104  and  _107
REMARK   48  A    between atoms: _111  and  _112
REMARK   49  A    between atoms: _117  and  _119
REMARK   50  A    between atoms: _119  and  _120
REMARK   51  A    between atoms: _119  and  _122
REMARK   52  A    between atoms: _122  and  _123
REMARK   53  A    between atoms: _129  and  _131
REMARK   54  A    between atoms: _131  and  _132
REMARK   55  A    between atoms: _134  and  _136
REMARK   56  A    between atoms: _136  and  _137
REMARK   57  A    between atoms: _136  and  _139
REMARK   58  A    between atoms: _139  and  _140
REMARK   59  A    between atoms: _140  and  _141
REMARK   60  A    between atoms: _144  and  _146
REMARK   61  A    between atoms: _146  and  _147
REMARK   62  A    between atoms: _150  and  _152
REMARK   63  A    between atoms: _152  and  _153
REMARK   64  A    between atoms: _152  and  _155
REMARK   65  A    between atoms: _155  and  _156
REMARK   66  A    between atoms: _161  and  _163
REMARK   67  A    between atoms: _163  and  _164
REMARK   68  A    between atoms: _167  and  _169
REMARK   69  A    between atoms: _169  and  _170
REMARK   70  A    between atoms: _169  and  _172
REMARK   71  A    between atoms: _172  and  _173
REMARK   72  A    between atoms: _173  and  _174
REMARK   73  A    between atoms: _174  and  _175
REMARK   74  A    between atoms: _175  and  _176
REMARK   75  A    between atoms: _180  and  _182
REMARK   76  A    between atoms: _182  and  _183
REMARK   77  A    between atoms: _182  and  _185
REMARK   78  A    between atoms: _185  and  _186
REMARK   79  A    between atoms: _186  and  _187
REMARK   80  A    between atoms: _187  and  _188
REMARK   81  A    between atoms: _197  and  _199
REMARK   82  A    between atoms: _199  and  _200
REMARK   83  A    between atoms: _199  and  _202
REMARK   84  A    between atoms: _202  and  _203
REMARK   85  A    between atoms: _203  and  _204
REMARK   86  A    between atoms: _207  and  _209
REMARK   87  A    between atoms: _209  and  _210
REMARK   88  A    between atoms: _209  and  _212
REMARK   89  A    between atoms: _215  and  _217
REMARK   90  A    between atoms: _217  and  _218
REMARK   91  A    between atoms: _221  and  _223
REMARK   92  A    between atoms: _223  and  _224
REMARK   93  A    between atoms: _223  and  _226
REMARK   94  A    between atoms: _226  and  _227
REMARK   95  A    between atoms: _237  and  _239
REMARK   96  A    between atoms: _239  and  _240
REMARK   97  A    between atoms: _239  and  _242
REMARK   98  A    between atoms: _245  and  _247
REMARK   99  A    between atoms: _247  and  _248
REMARK  100  A    between atoms: _247  and  _250
REMARK  101  A    between atoms: _250  and  _251
REMARK  102  A    between atoms: _254  and  _256
REMARK  103  A    between atoms: _256  and  _257
REMARK  104  A    between atoms: _256  and  _259
REMARK  105  A    between atoms: _259  and  _260
REMARK  106  A    between atoms: _266  and  _268
REMARK  107  A    between atoms: _268  and  _269
REMARK  108  A    between atoms: _268  and  _271
REMARK  109  A    between atoms: _271  and  _272
REMARK  110  A    between atoms: _272  and  _273
REMARK  111  A    between atoms: _278  and  _280
REMARK  112  A    between atoms: _280  and  _281
REMARK  113  A    between atoms: _280  and  _283
REMARK  114  A    between atoms: _286  and  _288
REMARK  115  A    between atoms: _288  and  _289
REMARK  116  A    between atoms: _288  and  _291
REMARK  117  A    between atoms: _291  and  _292
REMARK  118  A    between atoms: _295  and  _297
REMARK  119  A    between atoms: _297  and  _298
REMARK  120  A    between atoms: _297  and  _300
REMARK  121  A    between atoms: _300  and  _301
REMARK  122  A    between atoms: _304  and  _306
REMARK  123  A    between atoms: _306  and  _307
REMARK  124  A    between atoms: _306  and  _309
REMARK  125  A    between atoms: _309  and  _310
REMARK  126  A    between atoms: _313  and  _315
REMARK  127  A    between atoms: _315  and  _316
REMARK  128  A    between atoms: _315  and  _318
REMARK  129  A    between atoms: _318  and  _319
REMARK  130  A    between atoms: _322  and  _324
REMARK  131  A    between atoms: _324  and  _325
REMARK  132  A    between atoms: _324  and  _327
REMARK  133  A    between atoms: _327  and  _328
REMARK  134  A    between atoms: _328  and  _329
REMARK  135  A    between atoms: _329  and  _330
REMARK  136  A    between atoms: _339  and  _341
REMARK  137  A    between atoms: _341  and  _342
REMARK  138  A    between atoms: _341  and  _344
REMARK  139  A    between atoms: _344  and  _345
REMARK  140  A    between atoms: _348  and  _350
REMARK  141  A    between atoms: _350  and  _351
REMARK  142  A    between atoms: _350  and  _353
REMARK  143  A    between atoms: _353  and  _354
REMARK  144  A    between atoms: _358  and  _359
REMARK  145  A    between atoms: _364  and  _366
REMARK  146  A    between atoms: _366  and  _367
REMARK  147  A    between atoms: _366  and  _369
REMARK  148  A    between atoms: _369  and  _370
REMARK  149  A    between atoms: _375  and  _376
REMARK  150  A    between atoms: _378  and  _380
REMARK  151  A    between atoms: _380  and  _381
REMARK  152  A    between atoms: _380  and  _383
REMARK  153  A    between atoms: _383  and  _384
REMARK  154  A    between atoms: _394  and  _396
REMARK  155  A    between atoms: _396  and  _397
REMARK  156  A    between atoms: _396  and  _399
REMARK  157  A    between atoms: _399  and  _400
REMARK  158  A    between atoms: _406  and  _408
REMARK  159  A    between atoms: _408  and  _409
REMARK  160  A    between atoms: _408  and  _411
REMARK  161  A    between atoms: _411  and  _412
REMARK  162  A    between atoms: _415  and  _417
REMARK  163  A    between atoms: _417  and  _418
REMARK  164  A    between atoms: _417  and  _420
REMARK  165  A    between atoms: _420  and  _421
REMARK  166  A    between atoms: _431  and  _433
REMARK  167  A    between atoms: _433  and  _434
REMARK  168  A    between atoms: _433  and  _436
REMARK  169  A    between atoms: _436  and  _437
REMARK  170  A    between atoms: _437  and  _438
REMARK  171  A    between atoms: _440  and  _442
REMARK  172  A    between atoms: _442  and  _443
REMARK  173  A    between atoms: _442  and  _445
REMARK  174  A    between atoms: _445  and  _446
REMARK  175  A    between atoms: _451  and  _453
REMARK  176  A    between atoms: _453  and  _454
REMARK  177  A    between atoms: _457  and  _458
REMARK  178  A    between atoms: _463  and  _465
REMARK  179  A    between atoms: _465  and  _466
REMARK  180  A    between atoms: _465  and  _468
REMARK  181  A    between atoms: _468  and  _469
REMARK  182  A    between atoms: _479  and  _481
REMARK  183  A    between atoms: _481  and  _482
REMARK  184  A    between atoms: _486  and  _487
REMARK  185  A    between atoms: _492  and  _494
REMARK  186  A    between atoms: _494  and  _495
REMARK  187  A    between atoms: _494  and  _497
REMARK  188  A    between atoms: _497  and  _498
REMARK  189  A    between atoms: _498  and  _499
REMARK  190  A    between atoms: _504  and  _506
REMARK  191  A    between atoms: _506  and  _507
REMARK  192  A    between atoms: _509  and  _511
REMARK  193  A    between atoms: _511  and  _512
REMARK  194  A    between atoms: _514  and  _516
REMARK  195  A    between atoms: _516  and  _517
REMARK  196  A    between atoms: _516  and  _519
REMARK  197  A    between atoms: _519  and  _520
REMARK  198  A    between atoms: _530  and  _532
REMARK  199  A    between atoms: _532  and  _533
REMARK  200  A    between atoms: _532  and  _535
REMARK  201  A    between atoms: _535  and  _536
REMARK  202  A    between atoms: _539  and  _541
REMARK  203  A    between atoms: _541  and  _542
REMARK  204  A    between atoms: _541  and  _544
REMARK  205  A    between atoms: _544  and  _545
REMARK  206  A    between atoms: _548  and  _550
REMARK  207  A    between atoms: _550  and  _551
REMARK  208  A    between atoms: _550  and  _553
REMARK  209  A    between atoms: _553  and  _554
REMARK  210  A    between atoms: _554  and  _555
REMARK  211  A    between atoms: _555  and  _556
REMARK  212  A    between atoms: _565  and  _567
REMARK  213  A    between atoms: _567  and  _568
REMARK  214  A    between atoms: _567  and  _570
REMARK  215  A    between atoms: _570  and  _571
REMARK  216  A    between atoms: _581  and  _583
REMARK  217  A    between atoms: _583  and  _584
REMARK  218  A    between atoms: _586  and  _588
REMARK  219  A    between atoms: _588  and  _589
REMARK  220  A    between atoms: _588  and  _591
REMARK  221  A    between atoms: _591  and  _592
REMARK  222  A    between atoms: _597  and  _599
REMARK  223  A    between atoms: _599  and  _600
REMARK  224  A    between atoms: _603  and  _605
REMARK  225  A    between atoms: _605  and  _606
REMARK  226  A    between atoms: _605  and  _608
REMARK  227  A    between atoms: _608  and  _609
REMARK  228  A    between atoms: _612  and  _614
REMARK  229  A    between atoms: _614  and  _615
REMARK  230  A    between atoms: _614  and  _617
REMARK  231  A    between atoms: _617  and  _618
REMARK  232  A    between atoms: _624  and  _626
REMARK  233  A    between atoms: _626  and  _627
REMARK  234  A    between atoms: _626  and  _629
REMARK  235  A    between atoms: _629  and  _630
REMARK  236  A    between atoms: _630  and  _631
REMARK  237  A    between atoms: _635  and  _636
REMARK  238  A    between atoms: _641  and  _643
REMARK  239  A    between atoms: _643  and  _644
REMARK  240  A    between atoms: _643  and  _646
REMARK  241  A    between atoms: _646  and  _647
REMARK  242  A    between atoms: _647  and  _648
REMARK  243  A    between atoms: _648  and  _649
REMARK                            x       y       z     vdW  Elec       q    Type
REMARK                         _______ _______ _______ _____ _____    ______ ____
ROOT
ATOM      1  O   HOH     1     -10.181  -4.585  17.587  0.00  0.00    +0.000 OA
ENDROOT
TORSDOF 0
REMARK  Name = ../refined-set-2016/3k02/3k02_pocket.pdb
REMARK  243 active torsions:
REMARK  status: ('A' for Active; 'I' for Inactive)
REMARK    1  A    between atoms: _1  and  _3
REMARK    2  A    between atoms: _3  and  _4
REMARK    3  A    between atoms: _3  and  _6
REMARK    4  A    between atoms: _6  and  _7
REMARK    5  A    between atoms: _10  and  _12
REMARK    6  A    between atoms: _12  and  _13
REMARK    7  A    between atoms: _12  and  _15
REMARK    8  A    between atoms: _15  and  _16
REMARK    9  A    between atoms: _19  and  _21
REMARK   10  A    between atoms: _21  and  _22
REMARK   11  A    between atoms: _21  and  _24
REMARK   12  A    between atoms: _24  and  _25
REMARK   13  A    between atoms: _27  and  _29
REMARK   14  A    between atoms: _29  and  _30
REMARK   15  A    between atoms: _29  and  _32
REMARK   16  A    between atoms: _32  and  _33
REMARK   17  A    between atoms: _38  and  _40
REMARK   18  A    between atoms: _40  and  _41
REMARK   19  A    between atoms: _40  and  _43
REMARK   20  A    between atoms: _43  and  _44
REMARK   21  A    between atoms: _44  and  _45
REMARK   22  A    between atoms: _48  and  _50
REMARK   23  A    between atoms: _50  and  _51
REMARK   24  A    between atoms: _54  and  _56
REMARK   25  A    between atoms: _56  and  _57
REMARK   26  A    between atoms: _56  and  _59
REMARK   27  A    between atoms: _59  and  _60
REMARK   28  A    between atoms: _60  and  _61
REMARK   29  A    between atoms: _64  and  _66
REMARK   30  A    between atoms: _66  and  _67
REMARK   31  A    between atoms: _66  and  _69
REMARK   32  A    between atoms: _69  and  _70
REMARK   33  A    between atoms: _70  and  _71
REMARK   34  A    between atoms: _71  and  _72
REMARK   35  A    between atoms: _72  and  _73
REMARK   36  A    between atoms: _77  and  _79
REMARK   37  A    between atoms: _79  and  _80
REMARK   38  A    between atoms: _79  and  _82
REMARK   39  A    between atoms: _82  and  _83
REMARK   40  A    between atoms: _88  and  _89
REMARK   41  A    between atoms: _91  and  _93
REMARK   42  A    between atoms: _93  and  _94
REMARK   43  A    between atoms: _93  and  _96
REMARK   44  A    between atoms: _96  and  _97
REMARK   45  A    between atoms: _102  and  _104
REMARK   46  A    between atoms: _104  and  _105
REMARK   47  A    between atoms: _104  and  _107
REMARK   48  A    between atoms: _111  and  _112
REMARK   49  A    between atoms: _117  and  _119
REMARK   50  A    between atoms: _119  and  _120
REMARK   51  A    between atoms: _119  and  _122
REMARK   52  A    between atoms: _122  and  _123
REMARK   53  A    between atoms: _129  and  _131
REMARK   54  A    between atoms: _131  and  _132
REMARK   55  A    between atoms: _134  and  _136
REMARK   56  A    between atoms: _136  and  _137
REMARK   57  A    between atoms: _136  and  _139
REMARK   58  A    between atoms: _139  and  _140
REMARK   59  A    between atoms: _140  and  _141
REMARK   60  A    between atoms: _144  and  _146
REMARK   61  A    between atoms: _146  and  _147
REMARK   62  A    between atoms: _150  and  _152
REMARK   63  A    between atoms: _152  and  _153
REMARK   64  A    between atoms: _152  and  _155
REMARK   65  A    between atoms: _155  and  _156
REMARK   66  A    between atoms: _161  and  _163
REMARK   67  A    between atoms: _163  and  _164
REMARK   68  A    between atoms: _167  and  _169
REMARK   69  A    between atoms: _169  and  _170
REMARK   70  A    between atoms: _169  and  _172
REMARK   71  A    between atoms: _172  and  _173
REMARK   72  A    between atoms: _173  and  _174
REMARK   73  A    between atoms: _174  and  _175
REMARK   74  A    between atoms: _175  and  _176
REMARK   75  A    between atoms: _180  and  _182
REMARK   76  A    between atoms: _182  and  _183
REMARK   77  A    between atoms: _182  and  _185
REMARK   78  A    between atoms: _185  and  _186
REMARK   79  A    between atoms: _186  and  _187
REMARK   80  A    between atoms: _187  and  _188
REMARK   81  A    between atoms: _197  and  _199
REMARK   82  A    between atoms: _199  and  _200
REMARK   83  A    between atoms: _199  and  _202
REMARK   84  A    between atoms: _202  and  _203
REMARK   85  A    between atoms: _203  and  _204
REMARK   86  A    between atoms: _207  and  _209
REMARK   87  A    between atoms: _209  and  _210
REMARK   88  A    between atoms: _209  and  _212
REMARK   89  A    between atoms: _215  and  _217
REMARK   90  A    between atoms: _217  and  _218
REMARK   91  A    between atoms: _221  and  _223
REMARK   92  A    between atoms: _223  and  _224
REMARK   93  A    between atoms: _223  and  _226
REMARK   94  A    between atoms: _226  and  _227
REMARK   95  A    between atoms: _237  and  _239
REMARK   96  A    between atoms: _239  and  _240
REMARK   97  A    between atoms: _239  and  _242
REMARK   98  A    between atoms: _245  and  _247
REMARK   99  A    between atoms: _247  and  _248
REMARK  100  A    between atoms: _247  and  _250
REMARK  101  A    between atoms: _250  and  _251
REMARK  102  A    between atoms: _254  and  _256
REMARK  103  A    between atoms: _256  and  _257
REMARK  104  A    between atoms: _256  and  _259
REMARK  105  A    between atoms: _259  and  _260
REMARK  106  A    between atoms: _266  and  _268
REMARK  107  A    between atoms: _268  and  _269
REMARK  108  A    between atoms: _268  and  _271
REMARK  109  A    between atoms: _271  and  _272
REMARK  110  A    between atoms: _272  and  _273
REMARK  111  A    between atoms: _278  and  _280
REMARK  112  A    between atoms: _280  and  _281
REMARK  113  A    between atoms: _280  and  _283
REMARK  114  A    between atoms: _286  and  _288
REMARK  115  A    between atoms: _288  and  _289
REMARK  116  A    between atoms: _288  and  _291
REMARK  117  A    between atoms: _291  and  _292
REMARK  118  A    between atoms: _295  and  _297
REMARK  119  A    between atoms: _297  and  _298
REMARK  120  A    between atoms: _297  and  _300
REMARK  121  A    between atoms: _300  and  _301
REMARK  122  A    between atoms: _304  and  _306
REMARK  123  A    between atoms: _306  and  _307
REMARK  124  A    between atoms: _306  and  _309
REMARK  125  A    between atoms: _309  and  _310
REMARK  126  A    between atoms: _313  and  _315
REMARK  127  A    between atoms: _315  and  _316
REMARK  128  A    between atoms: _315  and  _318
REMARK  129  A    between atoms: _318  and  _319
REMARK  130  A    between atoms: _322  and  _324
REMARK  131  A    between atoms: _324  and  _325
REMARK  132  A    between atoms: _324  and  _327
REMARK  133  A    between atoms: _327  and  _328
REMARK  134  A    between atoms: _328  and  _329
REMARK  135  A    between atoms: _329  and  _330
REMARK  136  A    between atoms: _339  and  _341
REMARK  137  A    between atoms: _341  and  _342
REMARK  138  A    between atoms: _341  and  _344
REMARK  139  A    between atoms: _344  and  _345
REMARK  140  A    between atoms: _348  and  _350
REMARK  141  A    between atoms: _350  and  _351
REMARK  142  A    between atoms: _350  and  _353
REMARK  143  A    between atoms: _353  and  _354
REMARK  144  A    between atoms: _358  and  _359
REMARK  145  A    between atoms: _364  and  _366
REMARK  146  A    between atoms: _366  and  _367
REMARK  147  A    between atoms: _366  and  _369
REMARK  148  A    between atoms: _369  and  _370
REMARK  149  A    between atoms: _375  and  _376
REMARK  150  A    between atoms: _378  and  _380
REMARK  151  A    between atoms: _380  and  _381
REMARK  152  A    between atoms: _380  and  _383
REMARK  153  A    between atoms: _383  and  _384
REMARK  154  A    between atoms: _394  and  _396
REMARK  155  A    between atoms: _396  and  _397
REMARK  156  A    between atoms: _396  and  _399
REMARK  157  A    between atoms: _399  and  _400
REMARK  158  A    between atoms: _406  and  _408
REMARK  159  A    between atoms: _408  and  _409
REMARK  160  A    between atoms: _408  and  _411
REMARK  161  A    between atoms: _411  and  _412
REMARK  162  A    between atoms: _415  and  _417
REMARK  163  A    between atoms: _417  and  _418
REMARK  164  A    between atoms: _417  and  _420
REMARK  165  A    between atoms: _420  and  _421
REMARK  166  A    between atoms: _431  and  _433
REMARK  167  A    between atoms: _433  and  _434
REMARK  168  A    between atoms: _433  and  _436
REMARK  169  A    between atoms: _436  and  _437
REMARK  170  A    between atoms: _437  and  _438
REMARK  171  A    between atoms: _440  and  _442
REMARK  172  A    between atoms: _442  and  _443
REMARK  173  A    between atoms: _442  and  _445
REMARK  174  A    between atoms: _445  and  _446
REMARK  175  A    between atoms: _451  and  _453
REMARK  176  A    between atoms: _453  and  _454
REMARK  177  A    between atoms: _457  and  _458
REMARK  178  A    between atoms: _463  and  _465
REMARK  179  A    between atoms: _465  and  _466
REMARK  180  A    between atoms: _465  and  _468
REMARK  181  A    between atoms: _468  and  _469
REMARK  182  A    between atoms: _479  and  _481
REMARK  183  A    between atoms: _481  and  _482
REMARK  184  A    between atoms: _486  and  _487
REMARK  185  A    between atoms: _492  and  _494
REMARK  186  A    between atoms: _494  and  _495
REMARK  187  A    between atoms: _494  and  _497
REMARK  188  A    between atoms: _497  and  _498
REMARK  189  A    between atoms: _498  and  _499
REMARK  190  A    between atoms: _504  and  _506
REMARK  191  A    between atoms: _506  and  _507
REMARK  192  A    between atoms: _509  and  _511
REMARK  193  A    between atoms: _511  and  _512
REMARK  194  A    between atoms: _514  and  _516
REMARK  195  A    between atoms: _516  and  _517
REMARK  196  A    between atoms: _516  and  _519
REMARK  197  A    between atoms: _519  and  _520
REMARK  198  A    between atoms: _530  and  _532
REMARK  199  A    between atoms: _532  and  _533
REMARK  200  A    between atoms: _532  and  _535
REMARK  201  A    between atoms: _535  and  _536
REMARK  202  A    between atoms: _539  and  _541
REMARK  203  A    between atoms: _541  and  _542
REMARK  204  A    between atoms: _541  and  _544
REMARK  205  A    between atoms: _544  and  _545
REMARK  206  A    between atoms: _548  and  _550
REMARK  207  A    between atoms: _550  and  _551
REMARK  208  A    between atoms: _550  and  _553
REMARK  209  A    between atoms: _553  and  _554
REMARK  210  A    between atoms: _554  and  _555
REMARK  211  A    between atoms: _555  and  _556
REMARK  212  A    between atoms: _565  and  _567
REMARK  213  A    between atoms: _567  and  _568
REMARK  214  A    between atoms: _567  and  _570
REMARK  215  A    between atoms: _570  and  _571
REMARK  216  A    between atoms: _581  and  _583
REMARK  217  A    between atoms: _583  and  _584
REMARK  218  A    between atoms: _586  and  _588
REMARK  219  A    between atoms: _588  and  _589
REMARK  220  A    between atoms: _588  and  _591
REMARK  221  A    between atoms: _591  and  _592
REMARK  222  A    between atoms: _597  and  _599
REMARK  223  A    between atoms: _599  and  _600
REMARK  224  A    between atoms: _603  and  _605
REMARK  225  A    between atoms: _605  and  _606
REMARK  226  A    between atoms: _605  and  _608
REMARK  227  A    between atoms: _608  and  _609
REMARK  228  A    between atoms: _612  and  _614
REMARK  229  A    between atoms: _614  and  _615
REMARK  230  A    between atoms: _614  and  _617
REMARK  231  A    between atoms: _617  and  _618
REMARK  232  A    between atoms: _624  and  _626
REMARK  233  A    between atoms: _626  and  _627
REMARK  234  A    between atoms: _626  and  _629
REMARK  235  A    between atoms: _629  and  _630
REMARK  236  A    between atoms: _630  and  _631
REMARK  237  A    between atoms: _635  and  _636
REMARK  238  A    between atoms: _641  and  _643
REMARK  239  A    between atoms: _643  and  _644
REMARK  240  A    between atoms: _643  and  _646
REMARK  241  A    between atoms: _646  and  _647
REMARK  242  A    between atoms: _647  and  _648
REMARK  243  A    between atoms: _648  and  _649
REMARK                            x       y       z     vdW  Elec       q    Type
REMARK                         _______ _______ _______ _____ _____    ______ ____
ROOT
ATOM      1  O   HOH     1      -4.602 -18.642  16.662  0.00  0.00    +0.000 OA
ENDROOT
TORSDOF 0
REMARK  Name = ../refined-set-2016/3k02/3k02_pocket.pdb
REMARK  243 active torsions:
REMARK  status: ('A' for Active; 'I' for Inactive)
REMARK    1  A    between atoms: _1  and  _3
REMARK    2  A    between atoms: _3  and  _4
REMARK    3  A    between atoms: _3  and  _6
REMARK    4  A    between atoms: _6  and  _7
REMARK    5  A    between atoms: _10  and  _12
REMARK    6  A    between atoms: _12  and  _13
REMARK    7  A    between atoms: _12  and  _15
REMARK    8  A    between atoms: _15  and  _16
REMARK    9  A    between atoms: _19  and  _21
REMARK   10  A    between atoms: _21  and  _22
REMARK   11  A    between atoms: _21  and  _24
REMARK   12  A    between atoms: _24  and  _25
REMARK   13  A    between atoms: _27  and  _29
REMARK   14  A    between atoms: _29  and  _30
REMARK   15  A    between atoms: _29  and  _32
REMARK   16  A    between atoms: _32  and  _33
REMARK   17  A    between atoms: _38  and  _40
REMARK   18  A    between atoms: _40  and  _41
REMARK   19  A    between atoms: _40  and  _43
REMARK   20  A    between atoms: _43  and  _44
REMARK   21  A    between atoms: _44  and  _45
REMARK   22  A    between atoms: _48  and  _50
REMARK   23  A    between atoms: _50  and  _51
REMARK   24  A    between atoms: _54  and  _56
REMARK   25  A    between atoms: _56  and  _57
REMARK   26  A    between atoms: _56  and  _59
REMARK   27  A    between atoms: _59  and  _60
REMARK   28  A    between atoms: _60  and  _61
REMARK   29  A    between atoms: _64  and  _66
REMARK   30  A    between atoms: _66  and  _67
REMARK   31  A    between atoms: _66  and  _69
REMARK   32  A    between atoms: _69  and  _70
REMARK   33  A    between atoms: _70  and  _71
REMARK   34  A    between atoms: _71  and  _72
REMARK   35  A    between atoms: _72  and  _73
REMARK   36  A    between atoms: _77  and  _79
REMARK   37  A    between atoms: _79  and  _80
REMARK   38  A    between atoms: _79  and  _82
REMARK   39  A    between atoms: _82  and  _83
REMARK   40  A    between atoms: _88  and  _89
REMARK   41  A    between atoms: _91  and  _93
REMARK   42  A    between atoms: _93  and  _94
REMARK   43  A    between atoms: _93  and  _96
REMARK   44  A    between atoms: _96  and  _97
REMARK   45  A    between atoms: _102  and  _104
REMARK   46  A    between atoms: _104  and  _105
REMARK   47  A    between atoms: _104  and  _107
REMARK   48  A    between atoms: _111  and  _112
REMARK   49  A    between atoms: _117  and  _119
REMARK   50  A    between atoms: _119  and  _120
REMARK   51  A    between atoms: _119  and  _122
REMARK   52  A    between atoms: _122  and  _123
REMARK   53  A    between atoms: _129  and  _131
REMARK   54  A    between atoms: _131  and  _132
REMARK   55  A    between atoms: _134  and  _136
REMARK   56  A    between atoms: _136  and  _137
REMARK   57  A    between atoms: _136  and  _139
REMARK   58  A    between atoms: _139  and  _140
REMARK   59  A    between atoms: _140  and  _141
REMARK   60  A    between atoms: _144  and  _146
REMARK   61  A    between atoms: _146  and  _147
REMARK   62  A    between atoms: _150  and  _152
REMARK   63  A    between atoms: _152  and  _153
REMARK   64  A    between atoms: _152  and  _155
REMARK   65  A    between atoms: _155  and  _156
REMARK   66  A    between atoms: _161  and  _163
REMARK   67  A    between atoms: _163  and  _164
REMARK   68  A    between atoms: _167  and  _169
REMARK   69  A    between atoms: _169  and  _170
REMARK   70  A    between atoms: _169  and  _172
REMARK   71  A    between atoms: _172  and  _173
REMARK   72  A    between atoms: _173  and  _174
REMARK   73  A    between atoms: _174  and  _175
REMARK   74  A    between atoms: _175  and  _176
REMARK   75  A    between atoms: _180  and  _182
REMARK   76  A    between atoms: _182  and  _183
REMARK   77  A    between atoms: _182  and  _185
REMARK   78  A    between atoms: _185  and  _186
REMARK   79  A    between atoms: _186  and  _187
REMARK   80  A    between atoms: _187  and  _188
REMARK   81  A    between atoms: _197  and  _199
REMARK   82  A    between atoms: _199  and  _200
REMARK   83  A    between atoms: _199  and  _202
REMARK   84  A    between atoms: _202  and  _203
REMARK   85  A    between atoms: _203  and  _204
REMARK   86  A    between atoms: _207  and  _209
REMARK   87  A    between atoms: _209  and  _210
REMARK   88  A    between atoms: _209  and  _212
REMARK   89  A    between atoms: _215  and  _217
REMARK   90  A    between atoms: _217  and  _218
REMARK   91  A    between atoms: _221  and  _223
REMARK   92  A    between atoms: _223  and  _224
REMARK   93  A    between atoms: _223  and  _226
REMARK   94  A    between atoms: _226  and  _227
REMARK   95  A    between atoms: _237  and  _239
REMARK   96  A    between atoms: _239  and  _240
REMARK   97  A    between atoms: _239  and  _242
REMARK   98  A    between atoms: _245  and  _247
REMARK   99  A    between atoms: _247  and  _248
REMARK  100  A    between atoms: _247  and  _250
REMARK  101  A    between atoms: _250  and  _251
REMARK  102  A    between atoms: _254  and  _256
REMARK  103  A    between atoms: _256  and  _257
REMARK  104  A    between atoms: _256  and  _259
REMARK  105  A    between atoms: _259  and  _260
REMARK  106  A    between atoms: _266  and  _268
REMARK  107  A    between atoms: _268  and  _269
REMARK  108  A    between atoms: _268  and  _271
REMARK  109  A    between atoms: _271  and  _272
REMARK  110  A    between atoms: _272  and  _273
REMARK  111  A    between atoms: _278  and  _280
REMARK  112  A    between atoms: _280  and  _281
REMARK  113  A    between atoms: _280  and  _283
REMARK  114  A    between atoms: _286  and  _288
REMARK  115  A    between atoms: _288  and  _289
REMARK  116  A    between atoms: _288  and  _291
REMARK  117  A    between atoms: _291  and  _292
REMARK  118  A    between atoms: _295  and  _297
REMARK  119  A    between atoms: _297  and  _298
REMARK  120  A    between atoms: _297  and  _300
REMARK  121  A    between atoms: _300  and  _301
REMARK  122  A    between atoms: _304  and  _306
REMARK  123  A    between atoms: _306  and  _307
REMARK  124  A    between atoms: _306  and  _309
REMARK  125  A    between atoms: _309  and  _310
REMARK  126  A    between atoms: _313  and  _315
REMARK  127  A    between atoms: _315  and  _316
REMARK  128  A    between atoms: _315  and  _318
REMARK  129  A    between atoms: _318  and  _319
REMARK  130  A    between atoms: _322  and  _324
REMARK  131  A    between atoms: _324  and  _325
REMARK  132  A    between atoms: _324  and  _327
REMARK  133  A    between atoms: _327  and  _328
REMARK  134  A    between atoms: _328  and  _329
REMARK  135  A    between atoms: _329  and  _330
REMARK  136  A    between atoms: _339  and  _341
REMARK  137  A    between atoms: _341  and  _342
REMARK  138  A    between atoms: _341  and  _344
REMARK  139  A    between atoms: _344  and  _345
REMARK  140  A    between atoms: _348  and  _350
REMARK  141  A    between atoms: _350  and  _351
REMARK  142  A    between atoms: _350  and  _353
REMARK  143  A    between atoms: _353  and  _354
REMARK  144  A    between atoms: _358  and  _359
REMARK  145  A    between atoms: _364  and  _366
REMARK  146  A    between atoms: _366  and  _367
REMARK  147  A    between atoms: _366  and  _369
REMARK  148  A    between atoms: _369  and  _370
REMARK  149  A    between atoms: _375  and  _376
REMARK  150  A    between atoms: _378  and  _380
REMARK  151  A    between atoms: _380  and  _381
REMARK  152  A    between atoms: _380  and  _383
REMARK  153  A    between atoms: _383  and  _384
REMARK  154  A    between atoms: _394  and  _396
REMARK  155  A    between atoms: _396  and  _397
REMARK  156  A    between atoms: _396  and  _399
REMARK  157  A    between atoms: _399  and  _400
REMARK  158  A    between atoms: _406  and  _408
REMARK  159  A    between atoms: _408  and  _409
REMARK  160  A    between atoms: _408  and  _411
REMARK  161  A    between atoms: _411  and  _412
REMARK  162  A    between atoms: _415  and  _417
REMARK  163  A    between atoms: _417  and  _418
REMARK  164  A    between atoms: _417  and  _420
REMARK  165  A    between atoms: _420  and  _421
REMARK  166  A    between atoms: _431  and  _433
REMARK  167  A    between atoms: _433  and  _434
REMARK  168  A    between atoms: _433  and  _436
REMARK  169  A    between atoms: _436  and  _437
REMARK  170  A    between atoms: _437  and  _438
REMARK  171  A    between atoms: _440  and  _442
REMARK  172  A    between atoms: _442  and  _443
REMARK  173  A    between atoms: _442  and  _445
REMARK  174  A    between atoms: _445  and  _446
REMARK  175  A    between atoms: _451  and  _453
REMARK  176  A    between atoms: _453  and  _454
REMARK  177  A    between atoms: _457  and  _458
REMARK  178  A    between atoms: _463  and  _465
REMARK  179  A    between atoms: _465  and  _466
REMARK  180  A    between atoms: _465  and  _468
REMARK  181  A    between atoms: _468  and  _469
REMARK  182  A    between atoms: _479  and  _481
REMARK  183  A    between atoms: _481  and  _482
REMARK  184  A    between atoms: _486  and  _487
REMARK  185  A    between atoms: _492  and  _494
REMARK  186  A    between atoms: _494  and  _495
REMARK  187  A    between atoms: _494  and  _497
REMARK  188  A    between atoms: _497  and  _498
REMARK  189  A    between atoms: _498  and  _499
REMARK  190  A    between atoms: _504  and  _506
REMARK  191  A    between atoms: _506  and  _507
REMARK  192  A    between atoms: _509  and  _511
REMARK  193  A    between atoms: _511  and  _512
REMARK  194  A    between atoms: _514  and  _516
REMARK  195  A    between atoms: _516  and  _517
REMARK  196  A    between atoms: _516  and  _519
REMARK  197  A    between atoms: _519  and  _520
REMARK  198  A    between atoms: _530  and  _532
REMARK  199  A    between atoms: _532  and  _533
REMARK  200  A    between atoms: _532  and  _535
REMARK  201  A    between atoms: _535  and  _536
REMARK  202  A    between atoms: _539  and  _541
REMARK  203  A    between atoms: _541  and  _542
REMARK  204  A    between atoms: _541  and  _544
REMARK  205  A    between atoms: _544  and  _545
REMARK  206  A    between atoms: _548  and  _550
REMARK  207  A    between atoms: _550  and  _551
REMARK  208  A    between atoms: _550  and  _553
REMARK  209  A    between atoms: _553  and  _554
REMARK  210  A    between atoms: _554  and  _555
REMARK  211  A    between atoms: _555  and  _556
REMARK  212  A    between atoms: _565  and  _567
REMARK  213  A    between atoms: _567  and  _568
REMARK  214  A    between atoms: _567  and  _570
REMARK  215  A    between atoms: _570  and  _571
REMARK  216  A    between atoms: _581  and  _583
REMARK  217  A    between atoms: _583  and  _584
REMARK  218  A    between atoms: _586  and  _588
REMARK  219  A    between atoms: _588  and  _589
REMARK  220  A    between atoms: _588  and  _591
REMARK  221  A    between atoms: _591  and  _592
REMARK  222  A    between atoms: _597  and  _599
REMARK  223  A    between atoms: _599  and  _600
REMARK  224  A    between atoms: _603  and  _605
REMARK  225  A    between atoms: _605  and  _606
REMARK  226  A    between atoms: _605  and  _608
REMARK  227  A    between atoms: _608  and  _609
REMARK  228  A    between atoms: _612  and  _614
REMARK  229  A    between atoms: _614  and  _615
REMARK  230  A    between atoms: _614  and  _617
REMARK  231  A    between atoms: _617  and  _618
REMARK  232  A    between atoms: _624  and  _626
REMARK  233  A    between atoms: _626  and  _627
REMARK  234  A    between atoms: _626  and  _629
REMARK  235  A    between atoms: _629  and  _630
REMARK  236  A    between atoms: _630  and  _631
REMARK  237  A    between atoms: _635  and  _636
REMARK  238  A    between atoms: _641  and  _643
REMARK  239  A    between atoms: _643  and  _644
REMARK  240  A    between atoms: _643  and  _646
REMARK  241  A    between atoms: _646  and  _647
REMARK  242  A    between atoms: _647  and  _648
REMARK  243  A    between atoms: _648  and  _649
REMARK                            x       y       z     vdW  Elec       q    Type
REMARK                         _______ _______ _______ _____ _____    ______ ____
ROOT
ATOM      1  O   HOH     1      -7.434  -3.404  13.895  0.00  0.00    +0.000 OA
ENDROOT
TORSDOF 0
REMARK  Name = ../refined-set-2016/3k02/3k02_pocket.pdb
REMARK  243 active torsions:
REMARK  status: ('A' for Active; 'I' for Inactive)
REMARK    1  A    between atoms: _1  and  _3
REMARK    2  A    between atoms: _3  and  _4
REMARK    3  A    between atoms: _3  and  _6
REMARK    4  A    between atoms: _6  and  _7
REMARK    5  A    between atoms: _10  and  _12
REMARK    6  A    between atoms: _12  and  _13
REMARK    7  A    between atoms: _12  and  _15
REMARK    8  A    between atoms: _15  and  _16
REMARK    9  A    between atoms: _19  and  _21
REMARK   10  A    between atoms: _21  and  _22
REMARK   11  A    between atoms: _21  and  _24
REMARK   12  A    between atoms: _24  and  _25
REMARK   13  A    between atoms: _27  and  _29
REMARK   14  A    between atoms: _29  and  _30
REMARK   15  A    between atoms: _29  and  _32
REMARK   16  A    between atoms: _32  and  _33
REMARK   17  A    between atoms: _38  and  _40
REMARK   18  A    between atoms: _40  and  _41
REMARK   19  A    between atoms: _40  and  _43
REMARK   20  A    between atoms: _43  and  _44
REMARK   21  A    between atoms: _44  and  _45
REMARK   22  A    between atoms: _48  and  _50
REMARK   23  A    between atoms: _50  and  _51
REMARK   24  A    between atoms: _54  and  _56
REMARK   25  A    between atoms: _56  and  _57
REMARK   26  A    between atoms: _56  and  _59
REMARK   27  A    between atoms: _59  and  _60
REMARK   28  A    between atoms: _60  and  _61
REMARK   29  A    between atoms: _64  and  _66
REMARK   30  A    between atoms: _66  and  _67
REMARK   31  A    between atoms: _66  and  _69
REMARK   32  A    between atoms: _69  and  _70
REMARK   33  A    between atoms: _70  and  _71
REMARK   34  A    between atoms: _71  and  _72
REMARK   35  A    between atoms: _72  and  _73
REMARK   36  A    between atoms: _77  and  _79
REMARK   37  A    between atoms: _79  and  _80
REMARK   38  A    between atoms: _79  and  _82
REMARK   39  A    between atoms: _82  and  _83
REMARK   40  A    between atoms: _88  and  _89
REMARK   41  A    between atoms: _91  and  _93
REMARK   42  A    between atoms: _93  and  _94
REMARK   43  A    between atoms: _93  and  _96
REMARK   44  A    between atoms: _96  and  _97
REMARK   45  A    between atoms: _102  and  _104
REMARK   46  A    between atoms: _104  and  _105
REMARK   47  A    between atoms: _104  and  _107
REMARK   48  A    between atoms: _111  and  _112
REMARK   49  A    between atoms: _117  and  _119
REMARK   50  A    between atoms: _119  and  _120
REMARK   51  A    between atoms: _119  and  _122
REMARK   52  A    between atoms: _122  and  _123
REMARK   53  A    between atoms: _129  and  _131
REMARK   54  A    between atoms: _131  and  _132
REMARK   55  A    between atoms: _134  and  _136
REMARK   56  A    between atoms: _136  and  _137
REMARK   57  A    between atoms: _136  and  _139
REMARK   58  A    between atoms: _139  and  _140
REMARK   59  A    between atoms: _140  and  _141
REMARK   60  A    between atoms: _144  and  _146
REMARK   61  A    between atoms: _146  and  _147
REMARK   62  A    between atoms: _150  and  _152
REMARK   63  A    between atoms: _152  and  _153
REMARK   64  A    between atoms: _152  and  _155
REMARK   65  A    between atoms: _155  and  _156
REMARK   66  A    between atoms: _161  and  _163
REMARK   67  A    between atoms: _163  and  _164
REMARK   68  A    between atoms: _167  and  _169
REMARK   69  A    between atoms: _169  and  _170
REMARK   70  A    between atoms: _169  and  _172
REMARK   71  A    between atoms: _172  and  _173
REMARK   72  A    between atoms: _173  and  _174
REMARK   73  A    between atoms: _174  and  _175
REMARK   74  A    between atoms: _175  and  _176
REMARK   75  A    between atoms: _180  and  _182
REMARK   76  A    between atoms: _182  and  _183
REMARK   77  A    between atoms: _182  and  _185
REMARK   78  A    between atoms: _185  and  _186
REMARK   79  A    between atoms: _186  and  _187
REMARK   80  A    between atoms: _187  and  _188
REMARK   81  A    between atoms: _197  and  _199
REMARK   82  A    between atoms: _199  and  _200
REMARK   83  A    between atoms: _199  and  _202
REMARK   84  A    between atoms: _202  and  _203
REMARK   85  A    between atoms: _203  and  _204
REMARK   86  A    between atoms: _207  and  _209
REMARK   87  A    between atoms: _209  and  _210
REMARK   88  A    between atoms: _209  and  _212
REMARK   89  A    between atoms: _215  and  _217
REMARK   90  A    between atoms: _217  and  _218
REMARK   91  A    between atoms: _221  and  _223
REMARK   92  A    between atoms: _223  and  _224
REMARK   93  A    between atoms: _223  and  _226
REMARK   94  A    between atoms: _226  and  _227
REMARK   95  A    between atoms: _237  and  _239
REMARK   96  A    between atoms: _239  and  _240
REMARK   97  A    between atoms: _239  and  _242
REMARK   98  A    between atoms: _245  and  _247
REMARK   99  A    between atoms: _247  and  _248
REMARK  100  A    between atoms: _247  and  _250
REMARK  101  A    between atoms: _250  and  _251
REMARK  102  A    between atoms: _254  and  _256
REMARK  103  A    between atoms: _256  and  _257
REMARK  104  A    between atoms: _256  and  _259
REMARK  105  A    between atoms: _259  and  _260
REMARK  106  A    between atoms: _266  and  _268
REMARK  107  A    between atoms: _268  and  _269
REMARK  108  A    between atoms: _268  and  _271
REMARK  109  A    between atoms: _271  and  _272
REMARK  110  A    between atoms: _272  and  _273
REMARK  111  A    between atoms: _278  and  _280
REMARK  112  A    between atoms: _280  and  _281
REMARK  113  A    between atoms: _280  and  _283
REMARK  114  A    between atoms: _286  and  _288
REMARK  115  A    between atoms: _288  and  _289
REMARK  116  A    between atoms: _288  and  _291
REMARK  117  A    between atoms: _291  and  _292
REMARK  118  A    between atoms: _295  and  _297
REMARK  119  A    between atoms: _297  and  _298
REMARK  120  A    between atoms: _297  and  _300
REMARK  121  A    between atoms: _300  and  _301
REMARK  122  A    between atoms: _304  and  _306
REMARK  123  A    between atoms: _306  and  _307
REMARK  124  A    between atoms: _306  and  _309
REMARK  125  A    between atoms: _309  and  _310
REMARK  126  A    between atoms: _313  and  _315
REMARK  127  A    between atoms: _315  and  _316
REMARK  128  A    between atoms: _315  and  _318
REMARK  129  A    between atoms: _318  and  _319
REMARK  130  A    between atoms: _322  and  _324
REMARK  131  A    between atoms: _324  and  _325
REMARK  132  A    between atoms: _324  and  _327
REMARK  133  A    between atoms: _327  and  _328
REMARK  134  A    between atoms: _328  and  _329
REMARK  135  A    between atoms: _329  and  _330
REMARK  136  A    between atoms: _339  and  _341
REMARK  137  A    between atoms: _341  and  _342
REMARK  138  A    between atoms: _341  and  _344
REMARK  139  A    between atoms: _344  and  _345
REMARK  140  A    between atoms: _348  and  _350
REMARK  141  A    between atoms: _350  and  _351
REMARK  142  A    between atoms: _350  and  _353
REMARK  143  A    between atoms: _353  and  _354
REMARK  144  A    between atoms: _358  and  _359
REMARK  145  A    between atoms: _364  and  _366
REMARK  146  A    between atoms: _366  and  _367
REMARK  147  A    between atoms: _366  and  _369
REMARK  148  A    between atoms: _369  and  _370
REMARK  149  A    between atoms: _375  and  _376
REMARK  150  A    between atoms: _378  and  _380
REMARK  151  A    between atoms: _380  and  _381
REMARK  152  A    between atoms: _380  and  _383
REMARK  153  A    between atoms: _383  and  _384
REMARK  154  A    between atoms: _394  and  _396
REMARK  155  A    between atoms: _396  and  _397
REMARK  156  A    between atoms: _396  and  _399
REMARK  157  A    between atoms: _399  and  _400
REMARK  158  A    between atoms: _406  and  _408
REMARK  159  A    between atoms: _408  and  _409
REMARK  160  A    between atoms: _408  and  _411
REMARK  161  A    between atoms: _411  and  _412
REMARK  162  A    between atoms: _415  and  _417
REMARK  163  A    between atoms: _417  and  _418
REMARK  164  A    between atoms: _417  and  _420
REMARK  165  A    between atoms: _420  and  _421
REMARK  166  A    between atoms: _431  and  _433
REMARK  167  A    between atoms: _433  and  _434
REMARK  168  A    between atoms: _433  and  _436
REMARK  169  A    between atoms: _436  and  _437
REMARK  170  A    between atoms: _437  and  _438
REMARK  171  A    between atoms: _440  and  _442
REMARK  172  A    between atoms: _442  and  _443
REMARK  173  A    between atoms: _442  and  _445
REMARK  174  A    between atoms: _445  and  _446
REMARK  175  A    between atoms: _451  and  _453
REMARK  176  A    between atoms: _453  and  _454
REMARK  177  A    between atoms: _457  and  _458
REMARK  178  A    between atoms: _463  and  _465
REMARK  179  A    between atoms: _465  and  _466
REMARK  180  A    between atoms: _465  and  _468
REMARK  181  A    between atoms: _468  and  _469
REMARK  182  A    between atoms: _479  and  _481
REMARK  183  A    between atoms: _481  and  _482
REMARK  184  A    between atoms: _486  and  _487
REMARK  185  A    between atoms: _492  and  _494
REMARK  186  A    between atoms: _494  and  _495
REMARK  187  A    between atoms: _494  and  _497
REMARK  188  A    between atoms: _497  and  _498
REMARK  189  A    between atoms: _498  and  _499
REMARK  190  A    between atoms: _504  and  _506
REMARK  191  A    between atoms: _506  and  _507
REMARK  192  A    between atoms: _509  and  _511
REMARK  193  A    between atoms: _511  and  _512
REMARK  194  A    between atoms: _514  and  _516
REMARK  195  A    between atoms: _516  and  _517
REMARK  196  A    between atoms: _516  and  _519
REMARK  197  A    between atoms: _519  and  _520
REMARK  198  A    between atoms: _530  and  _532
REMARK  199  A    between atoms: _532  and  _533
REMARK  200  A    between atoms: _532  and  _535
REMARK  201  A    between atoms: _535  and  _536
REMARK  202  A    between atoms: _539  and  _541
REMARK  203  A    between atoms: _541  and  _542
REMARK  204  A    between atoms: _541  and  _544
REMARK  205  A    between atoms: _544  and  _545
REMARK  206  A    between atoms: _548  and  _550
REMARK  207  A    between atoms: _550  and  _551
REMARK  208  A    between atoms: _550  and  _553
REMARK  209  A    between atoms: _553  and  _554
REMARK  210  A    between atoms: _554  and  _555
REMARK  211  A    between atoms: _555  and  _556
REMARK  212  A    between atoms: _565  and  _567
REMARK  213  A    between atoms: _567  and  _568
REMARK  214  A    between atoms: _567  and  _570
REMARK  215  A    between atoms: _570  and  _571
REMARK  216  A    between atoms: _581  and  _583
REMARK  217  A    between atoms: _583  and  _584
REMARK  218  A    between atoms: _586  and  _588
REMARK  219  A    between atoms: _588  and  _589
REMARK  220  A    between atoms: _588  and  _591
REMARK  221  A    between atoms: _591  and  _592
REMARK  222  A    between atoms: _597  and  _599
REMARK  223  A    between atoms: _599  and  _600
REMARK  224  A    between atoms: _603  and  _605
REMARK  225  A    between atoms: _605  and  _606
REMARK  226  A    between atoms: _605  and  _608
REMARK  227  A    between atoms: _608  and  _609
REMARK  228  A    between atoms: _612  and  _614
REMARK  229  A    between atoms: _614  and  _615
REMARK  230  A    between atoms: _614  and  _617
REMARK  231  A    between atoms: _617  and  _618
REMARK  232  A    between atoms: _624  and  _626
REMARK  233  A    between atoms: _626  and  _627
REMARK  234  A    between atoms: _626  and  _629
REMARK  235  A    between atoms: _629  and  _630
REMARK  236  A    between atoms: _630  and  _631
REMARK  237  A    between atoms: _635  and  _636
REMARK  238  A    between atoms: _641  and  _643
REMARK  239  A    between atoms: _643  and  _644
REMARK  240  A    between atoms: _643  and  _646
REMARK  241  A    between atoms: _646  and  _647
REMARK  242  A    between atoms: _647  and  _648
REMARK  243  A    between atoms: _648  and  _649
REMARK                            x       y       z     vdW  Elec       q    Type
REMARK                         _______ _______ _______ _____ _____    ______ ____
ROOT
ATOM      1  O   HOH     1       4.937  -3.436  25.427  0.00  0.00    +0.000 OA
ENDROOT
TORSDOF 0
REMARK  Name = ../refined-set-2016/3k02/3k02_pocket.pdb
REMARK  243 active torsions:
REMARK  status: ('A' for Active; 'I' for Inactive)
REMARK    1  A    between atoms: _1  and  _3
REMARK    2  A    between atoms: _3  and  _4
REMARK    3  A    between atoms: _3  and  _6
REMARK    4  A    between atoms: _6  and  _7
REMARK    5  A    between atoms: _10  and  _12
REMARK    6  A    between atoms: _12  and  _13
REMARK    7  A    between atoms: _12  and  _15
REMARK    8  A    between atoms: _15  and  _16
REMARK    9  A    between atoms: _19  and  _21
REMARK   10  A    between atoms: _21  and  _22
REMARK   11  A    between atoms: _21  and  _24
REMARK   12  A    between atoms: _24  and  _25
REMARK   13  A    between atoms: _27  and  _29
REMARK   14  A    between atoms: _29  and  _30
REMARK   15  A    between atoms: _29  and  _32
REMARK   16  A    between atoms: _32  and  _33
REMARK   17  A    between atoms: _38  and  _40
REMARK   18  A    between atoms: _40  and  _41
REMARK   19  A    between atoms: _40  and  _43
REMARK   20  A    between atoms: _43  and  _44
REMARK   21  A    between atoms: _44  and  _45
REMARK   22  A    between atoms: _48  and  _50
REMARK   23  A    between atoms: _50  and  _51
REMARK   24  A    between atoms: _54  and  _56
REMARK   25  A    between atoms: _56  and  _57
REMARK   26  A    between atoms: _56  and  _59
REMARK   27  A    between atoms: _59  and  _60
REMARK   28  A    between atoms: _60  and  _61
REMARK   29  A    between atoms: _64  and  _66
REMARK   30  A    between atoms: _66  and  _67
REMARK   31  A    between atoms: _66  and  _69
REMARK   32  A    between atoms: _69  and  _70
REMARK   33  A    between atoms: _70  and  _71
REMARK   34  A    between atoms: _71  and  _72
REMARK   35  A    between atoms: _72  and  _73
REMARK   36  A    between atoms: _77  and  _79
REMARK   37  A    between atoms: _79  and  _80
REMARK   38  A    between atoms: _79  and  _82
REMARK   39  A    between atoms: _82  and  _83
REMARK   40  A    between atoms: _88  and  _89
REMARK   41  A    between atoms: _91  and  _93
REMARK   42  A    between atoms: _93  and  _94
REMARK   43  A    between atoms: _93  and  _96
REMARK   44  A    between atoms: _96  and  _97
REMARK   45  A    between atoms: _102  and  _104
REMARK   46  A    between atoms: _104  and  _105
REMARK   47  A    between atoms: _104  and  _107
REMARK   48  A    between atoms: _111  and  _112
REMARK   49  A    between atoms: _117  and  _119
REMARK   50  A    between atoms: _119  and  _120
REMARK   51  A    between atoms: _119  and  _122
REMARK   52  A    between atoms: _122  and  _123
REMARK   53  A    between atoms: _129  and  _131
REMARK   54  A    between atoms: _131  and  _132
REMARK   55  A    between atoms: _134  and  _136
REMARK   56  A    between atoms: _136  and  _137
REMARK   57  A    between atoms: _136  and  _139
REMARK   58  A    between atoms: _139  and  _140
REMARK   59  A    between atoms: _140  and  _141
REMARK   60  A    between atoms: _144  and  _146
REMARK   61  A    between atoms: _146  and  _147
REMARK   62  A    between atoms: _150  and  _152
REMARK   63  A    between atoms: _152  and  _153
REMARK   64  A    between atoms: _152  and  _155
REMARK   65  A    between atoms: _155  and  _156
REMARK   66  A    between atoms: _161  and  _163
REMARK   67  A    between atoms: _163  and  _164
REMARK   68  A    between atoms: _167  and  _169
REMARK   69  A    between atoms: _169  and  _170
REMARK   70  A    between atoms: _169  and  _172
REMARK   71  A    between atoms: _172  and  _173
REMARK   72  A    between atoms: _173  and  _174
REMARK   73  A    between atoms: _174  and  _175
REMARK   74  A    between atoms: _175  and  _176
REMARK   75  A    between atoms: _180  and  _182
REMARK   76  A    between atoms: _182  and  _183
REMARK   77  A    between atoms: _182  and  _185
REMARK   78  A    between atoms: _185  and  _186
REMARK   79  A    between atoms: _186  and  _187
REMARK   80  A    between atoms: _187  and  _188
REMARK   81  A    between atoms: _197  and  _199
REMARK   82  A    between atoms: _199  and  _200
REMARK   83  A    between atoms: _199  and  _202
REMARK   84  A    between atoms: _202  and  _203
REMARK   85  A    between atoms: _203  and  _204
REMARK   86  A    between atoms: _207  and  _209
REMARK   87  A    between atoms: _209  and  _210
REMARK   88  A    between atoms: _209  and  _212
REMARK   89  A    between atoms: _215  and  _217
REMARK   90  A    between atoms: _217  and  _218
REMARK   91  A    between atoms: _221  and  _223
REMARK   92  A    between atoms: _223  and  _224
REMARK   93  A    between atoms: _223  and  _226
REMARK   94  A    between atoms: _226  and  _227
REMARK   95  A    between atoms: _237  and  _239
REMARK   96  A    between atoms: _239  and  _240
REMARK   97  A    between atoms: _239  and  _242
REMARK   98  A    between atoms: _245  and  _247
REMARK   99  A    between atoms: _247  and  _248
REMARK  100  A    between atoms: _247  and  _250
REMARK  101  A    between atoms: _250  and  _251
REMARK  102  A    between atoms: _254  and  _256
REMARK  103  A    between atoms: _256  and  _257
REMARK  104  A    between atoms: _256  and  _259
REMARK  105  A    between atoms: _259  and  _260
REMARK  106  A    between atoms: _266  and  _268
REMARK  107  A    between atoms: _268  and  _269
REMARK  108  A    between atoms: _268  and  _271
REMARK  109  A    between atoms: _271  and  _272
REMARK  110  A    between atoms: _272  and  _273
REMARK  111  A    between atoms: _278  and  _280
REMARK  112  A    between atoms: _280  and  _281
REMARK  113  A    between atoms: _280  and  _283
REMARK  114  A    between atoms: _286  and  _288
REMARK  115  A    between atoms: _288  and  _289
REMARK  116  A    between atoms: _288  and  _291
REMARK  117  A    between atoms: _291  and  _292
REMARK  118  A    between atoms: _295  and  _297
REMARK  119  A    between atoms: _297  and  _298
REMARK  120  A    between atoms: _297  and  _300
REMARK  121  A    between atoms: _300  and  _301
REMARK  122  A    between atoms: _304  and  _306
REMARK  123  A    between atoms: _306  and  _307
REMARK  124  A    between atoms: _306  and  _309
REMARK  125  A    between atoms: _309  and  _310
REMARK  126  A    between atoms: _313  and  _315
REMARK  127  A    between atoms: _315  and  _316
REMARK  128  A    between atoms: _315  and  _318
REMARK  129  A    between atoms: _318  and  _319
REMARK  130  A    between atoms: _322  and  _324
REMARK  131  A    between atoms: _324  and  _325
REMARK  132  A    between atoms: _324  and  _327
REMARK  133  A    between atoms: _327  and  _328
REMARK  134  A    between atoms: _328  and  _329
REMARK  135  A    between atoms: _329  and  _330
REMARK  136  A    between atoms: _339  and  _341
REMARK  137  A    between atoms: _341  and  _342
REMARK  138  A    between atoms: _341  and  _344
REMARK  139  A    between atoms: _344  and  _345
REMARK  140  A    between atoms: _348  and  _350
REMARK  141  A    between atoms: _350  and  _351
REMARK  142  A    between atoms: _350  and  _353
REMARK  143  A    between atoms: _353  and  _354
REMARK  144  A    between atoms: _358  and  _359
REMARK  145  A    between atoms: _364  and  _366
REMARK  146  A    between atoms: _366  and  _367
REMARK  147  A    between atoms: _366  and  _369
REMARK  148  A    between atoms: _369  and  _370
REMARK  149  A    between atoms: _375  and  _376
REMARK  150  A    between atoms: _378  and  _380
REMARK  151  A    between atoms: _380  and  _381
REMARK  152  A    between atoms: _380  and  _383
REMARK  153  A    between atoms: _383  and  _384
REMARK  154  A    between atoms: _394  and  _396
REMARK  155  A    between atoms: _396  and  _397
REMARK  156  A    between atoms: _396  and  _399
REMARK  157  A    between atoms: _399  and  _400
REMARK  158  A    between atoms: _406  and  _408
REMARK  159  A    between atoms: _408  and  _409
REMARK  160  A    between atoms: _408  and  _411
REMARK  161  A    between atoms: _411  and  _412
REMARK  162  A    between atoms: _415  and  _417
REMARK  163  A    between atoms: _417  and  _418
REMARK  164  A    between atoms: _417  and  _420
REMARK  165  A    between atoms: _420  and  _421
REMARK  166  A    between atoms: _431  and  _433
REMARK  167  A    between atoms: _433  and  _434
REMARK  168  A    between atoms: _433  and  _436
REMARK  169  A    between atoms: _436  and  _437
REMARK  170  A    between atoms: _437  and  _438
REMARK  171  A    between atoms: _440  and  _442
REMARK  172  A    between atoms: _442  and  _443
REMARK  173  A    between atoms: _442  and  _445
REMARK  174  A    between atoms: _445  and  _446
REMARK  175  A    between atoms: _451  and  _453
REMARK  176  A    between atoms: _453  and  _454
REMARK  177  A    between atoms: _457  and  _458
REMARK  178  A    between atoms: _463  and  _465
REMARK  179  A    between atoms: _465  and  _466
REMARK  180  A    between atoms: _465  and  _468
REMARK  181  A    between atoms: _468  and  _469
REMARK  182  A    between atoms: _479  and  _481
REMARK  183  A    between atoms: _481  and  _482
REMARK  184  A    between atoms: _486  and  _487
REMARK  185  A    between atoms: _492  and  _494
REMARK  186  A    between atoms: _494  and  _495
REMARK  187  A    between atoms: _494  and  _497
REMARK  188  A    between atoms: _497  and  _498
REMARK  189  A    between atoms: _498  and  _499
REMARK  190  A    between atoms: _504  and  _506
REMARK  191  A    between atoms: _506  and  _507
REMARK  192  A    between atoms: _509  and  _511
REMARK  193  A    between atoms: _511  and  _512
REMARK  194  A    between atoms: _514  and  _516
REMARK  195  A    between atoms: _516  and  _517
REMARK  196  A    between atoms: _516  and  _519
REMARK  197  A    between atoms: _519  and  _520
REMARK  198  A    between atoms: _530  and  _532
REMARK  199  A    between atoms: _532  and  _533
REMARK  200  A    between atoms: _532  and  _535
REMARK  201  A    between atoms: _535  and  _536
REMARK  202  A    between atoms: _539  and  _541
REMARK  203  A    between atoms: _541  and  _542
REMARK  204  A    between atoms: _541  and  _544
REMARK  205  A    between atoms: _544  and  _545
REMARK  206  A    between atoms: _548  and  _550
REMARK  207  A    between atoms: _550  and  _551
REMARK  208  A    between atoms: _550  and  _553
REMARK  209  A    between atoms: _553  and  _554
REMARK  210  A    between atoms: _554  and  _555
REMARK  211  A    between atoms: _555  and  _556
REMARK  212  A    between atoms: _565  and  _567
REMARK  213  A    between atoms: _567  and  _568
REMARK  214  A    between atoms: _567  and  _570
REMARK  215  A    between atoms: _570  and  _571
REMARK  216  A    between atoms: _581  and  _583
REMARK  217  A    between atoms: _583  and  _584
REMARK  218  A    between atoms: _586  and  _588
REMARK  219  A    between atoms: _588  and  _589
REMARK  220  A    between atoms: _588  and  _591
REMARK  221  A    between atoms: _591  and  _592
REMARK  222  A    between atoms: _597  and  _599
REMARK  223  A    between atoms: _599  and  _600
REMARK  224  A    between atoms: _603  and  _605
REMARK  225  A    between atoms: _605  and  _606
REMARK  226  A    between atoms: _605  and  _608
REMARK  227  A    between atoms: _608  and  _609
REMARK  228  A    between atoms: _612  and  _614
REMARK  229  A    between atoms: _614  and  _615
REMARK  230  A    between atoms: _614  and  _617
REMARK  231  A    between atoms: _617  and  _618
REMARK  232  A    between atoms: _624  and  _626
REMARK  233  A    between atoms: _626  and  _627
REMARK  234  A    between atoms: _626  and  _629
REMARK  235  A    between atoms: _629  and  _630
REMARK  236  A    between atoms: _630  and  _631
REMARK  237  A    between atoms: _635  and  _636
REMARK  238  A    between atoms: _641  and  _643
REMARK  239  A    between atoms: _643  and  _644
REMARK  240  A    between atoms: _643  and  _646
REMARK  241  A    between atoms: _646  and  _647
REMARK  242  A    between atoms: _647  and  _648
REMARK  243  A    between atoms: _648  and  _649
REMARK                            x       y       z     vdW  Elec       q    Type
REMARK                         _______ _______ _______ _____ _____    ______ ____
ROOT
ATOM      1  O   HOH     1       0.405  -6.662  30.171  0.00  0.00    +0.000 OA
ENDROOT
TORSDOF 0
REMARK  Name = ../refined-set-2016/3k02/3k02_pocket.pdb
REMARK  243 active torsions:
REMARK  status: ('A' for Active; 'I' for Inactive)
REMARK    1  A    between atoms: _1  and  _3
REMARK    2  A    between atoms: _3  and  _4
REMARK    3  A    between atoms: _3  and  _6
REMARK    4  A    between atoms: _6  and  _7
REMARK    5  A    between atoms: _10  and  _12
REMARK    6  A    between atoms: _12  and  _13
REMARK    7  A    between atoms: _12  and  _15
REMARK    8  A    between atoms: _15  and  _16
REMARK    9  A    between atoms: _19  and  _21
REMARK   10  A    between atoms: _21  and  _22
REMARK   11  A    between atoms: _21  and  _24
REMARK   12  A    between atoms: _24  and  _25
REMARK   13  A    between atoms: _27  and  _29
REMARK   14  A    between atoms: _29  and  _30
REMARK   15  A    between atoms: _29  and  _32
REMARK   16  A    between atoms: _32  and  _33
REMARK   17  A    between atoms: _38  and  _40
REMARK   18  A    between atoms: _40  and  _41
REMARK   19  A    between atoms: _40  and  _43
REMARK   20  A    between atoms: _43  and  _44
REMARK   21  A    between atoms: _44  and  _45
REMARK   22  A    between atoms: _48  and  _50
REMARK   23  A    between atoms: _50  and  _51
REMARK   24  A    between atoms: _54  and  _56
REMARK   25  A    between atoms: _56  and  _57
REMARK   26  A    between atoms: _56  and  _59
REMARK   27  A    between atoms: _59  and  _60
REMARK   28  A    between atoms: _60  and  _61
REMARK   29  A    between atoms: _64  and  _66
REMARK   30  A    between atoms: _66  and  _67
REMARK   31  A    between atoms: _66  and  _69
REMARK   32  A    between atoms: _69  and  _70
REMARK   33  A    between atoms: _70  and  _71
REMARK   34  A    between atoms: _71  and  _72
REMARK   35  A    between atoms: _72  and  _73
REMARK   36  A    between atoms: _77  and  _79
REMARK   37  A    between atoms: _79  and  _80
REMARK   38  A    between atoms: _79  and  _82
REMARK   39  A    between atoms: _82  and  _83
REMARK   40  A    between atoms: _88  and  _89
REMARK   41  A    between atoms: _91  and  _93
REMARK   42  A    between atoms: _93  and  _94
REMARK   43  A    between atoms: _93  and  _96
REMARK   44  A    between atoms: _96  and  _97
REMARK   45  A    between atoms: _102  and  _104
REMARK   46  A    between atoms: _104  and  _105
REMARK   47  A    between atoms: _104  and  _107
REMARK   48  A    between atoms: _111  and  _112
REMARK   49  A    between atoms: _117  and  _119
REMARK   50  A    between atoms: _119  and  _120
REMARK   51  A    between atoms: _119  and  _122
REMARK   52  A    between atoms: _122  and  _123
REMARK   53  A    between atoms: _129  and  _131
REMARK   54  A    between atoms: _131  and  _132
REMARK   55  A    between atoms: _134  and  _136
REMARK   56  A    between atoms: _136  and  _137
REMARK   57  A    between atoms: _136  and  _139
REMARK   58  A    between atoms: _139  and  _140
REMARK   59  A    between atoms: _140  and  _141
REMARK   60  A    between atoms: _144  and  _146
REMARK   61  A    between atoms: _146  and  _147
REMARK   62  A    between atoms: _150  and  _152
REMARK   63  A    between atoms: _152  and  _153
REMARK   64  A    between atoms: _152  and  _155
REMARK   65  A    between atoms: _155  and  _156
REMARK   66  A    between atoms: _161  and  _163
REMARK   67  A    between atoms: _163  and  _164
REMARK   68  A    between atoms: _167  and  _169
REMARK   69  A    between atoms: _169  and  _170
REMARK   70  A    between atoms: _169  and  _172
REMARK   71  A    between atoms: _172  and  _173
REMARK   72  A    between atoms: _173  and  _174
REMARK   73  A    between atoms: _174  and  _175
REMARK   74  A    between atoms: _175  and  _176
REMARK   75  A    between atoms: _180  and  _182
REMARK   76  A    between atoms: _182  and  _183
REMARK   77  A    between atoms: _182  and  _185
REMARK   78  A    between atoms: _185  and  _186
REMARK   79  A    between atoms: _186  and  _187
REMARK   80  A    between atoms: _187  and  _188
REMARK   81  A    between atoms: _197  and  _199
REMARK   82  A    between atoms: _199  and  _200
REMARK   83  A    between atoms: _199  and  _202
REMARK   84  A    between atoms: _202  and  _203
REMARK   85  A    between atoms: _203  and  _204
REMARK   86  A    between atoms: _207  and  _209
REMARK   87  A    between atoms: _209  and  _210
REMARK   88  A    between atoms: _209  and  _212
REMARK   89  A    between atoms: _215  and  _217
REMARK   90  A    between atoms: _217  and  _218
REMARK   91  A    between atoms: _221  and  _223
REMARK   92  A    between atoms: _223  and  _224
REMARK   93  A    between atoms: _223  and  _226
REMARK   94  A    between atoms: _226  and  _227
REMARK   95  A    between atoms: _237  and  _239
REMARK   96  A    between atoms: _239  and  _240
REMARK   97  A    between atoms: _239  and  _242
REMARK   98  A    between atoms: _245  and  _247
REMARK   99  A    between atoms: _247  and  _248
REMARK  100  A    between atoms: _247  and  _250
REMARK  101  A    between atoms: _250  and  _251
REMARK  102  A    between atoms: _254  and  _256
REMARK  103  A    between atoms: _256  and  _257
REMARK  104  A    between atoms: _256  and  _259
REMARK  105  A    between atoms: _259  and  _260
REMARK  106  A    between atoms: _266  and  _268
REMARK  107  A    between atoms: _268  and  _269
REMARK  108  A    between atoms: _268  and  _271
REMARK  109  A    between atoms: _271  and  _272
REMARK  110  A    between atoms: _272  and  _273
REMARK  111  A    between atoms: _278  and  _280
REMARK  112  A    between atoms: _280  and  _281
REMARK  113  A    between atoms: _280  and  _283
REMARK  114  A    between atoms: _286  and  _288
REMARK  115  A    between atoms: _288  and  _289
REMARK  116  A    between atoms: _288  and  _291
REMARK  117  A    between atoms: _291  and  _292
REMARK  118  A    between atoms: _295  and  _297
REMARK  119  A    between atoms: _297  and  _298
REMARK  120  A    between atoms: _297  and  _300
REMARK  121  A    between atoms: _300  and  _301
REMARK  122  A    between atoms: _304  and  _306
REMARK  123  A    between atoms: _306  and  _307
REMARK  124  A    between atoms: _306  and  _309
REMARK  125  A    between atoms: _309  and  _310
REMARK  126  A    between atoms: _313  and  _315
REMARK  127  A    between atoms: _315  and  _316
REMARK  128  A    between atoms: _315  and  _318
REMARK  129  A    between atoms: _318  and  _319
REMARK  130  A    between atoms: _322  and  _324
REMARK  131  A    between atoms: _324  and  _325
REMARK  132  A    between atoms: _324  and  _327
REMARK  133  A    between atoms: _327  and  _328
REMARK  134  A    between atoms: _328  and  _329
REMARK  135  A    between atoms: _329  and  _330
REMARK  136  A    between atoms: _339  and  _341
REMARK  137  A    between atoms: _341  and  _342
REMARK  138  A    between atoms: _341  and  _344
REMARK  139  A    between atoms: _344  and  _345
REMARK  140  A    between atoms: _348  and  _350
REMARK  141  A    between atoms: _350  and  _351
REMARK  142  A    between atoms: _350  and  _353
REMARK  143  A    between atoms: _353  and  _354
REMARK  144  A    between atoms: _358  and  _359
REMARK  145  A    between atoms: _364  and  _366
REMARK  146  A    between atoms: _366  and  _367
REMARK  147  A    between atoms: _366  and  _369
REMARK  148  A    between atoms: _369  and  _370
REMARK  149  A    between atoms: _375  and  _376
REMARK  150  A    between atoms: _378  and  _380
REMARK  151  A    between atoms: _380  and  _381
REMARK  152  A    between atoms: _380  and  _383
REMARK  153  A    between atoms: _383  and  _384
REMARK  154  A    between atoms: _394  and  _396
REMARK  155  A    between atoms: _396  and  _397
REMARK  156  A    between atoms: _396  and  _399
REMARK  157  A    between atoms: _399  and  _400
REMARK  158  A    between atoms: _406  and  _408
REMARK  159  A    between atoms: _408  and  _409
REMARK  160  A    between atoms: _408  and  _411
REMARK  161  A    between atoms: _411  and  _412
REMARK  162  A    between atoms: _415  and  _417
REMARK  163  A    between atoms: _417  and  _418
REMARK  164  A    between atoms: _417  and  _420
REMARK  165  A    between atoms: _420  and  _421
REMARK  166  A    between atoms: _431  and  _433
REMARK  167  A    between atoms: _433  and  _434
REMARK  168  A    between atoms: _433  and  _436
REMARK  169  A    between atoms: _436  and  _437
REMARK  170  A    between atoms: _437  and  _438
REMARK  171  A    between atoms: _440  and  _442
REMARK  172  A    between atoms: _442  and  _443
REMARK  173  A    between atoms: _442  and  _445
REMARK  174  A    between atoms: _445  and  _446
REMARK  175  A    between atoms: _451  and  _453
REMARK  176  A    between atoms: _453  and  _454
REMARK  177  A    between atoms: _457  and  _458
REMARK  178  A    between atoms: _463  and  _465
REMARK  179  A    between atoms: _465  and  _466
REMARK  180  A    between atoms: _465  and  _468
REMARK  181  A    between atoms: _468  and  _469
REMARK  182  A    between atoms: _479  and  _481
REMARK  183  A    between atoms: _481  and  _482
REMARK  184  A    between atoms: _486  and  _487
REMARK  185  A    between atoms: _492  and  _494
REMARK  186  A    between atoms: _494  and  _495
REMARK  187  A    between atoms: _494  and  _497
REMARK  188  A    between atoms: _497  and  _498
REMARK  189  A    between atoms: _498  and  _499
REMARK  190  A    between atoms: _504  and  _506
REMARK  191  A    between atoms: _506  and  _507
REMARK  192  A    between atoms: _509  and  _511
REMARK  193  A    between atoms: _511  and  _512
REMARK  194  A    between atoms: _514  and  _516
REMARK  195  A    between atoms: _516  and  _517
REMARK  196  A    between atoms: _516  and  _519
REMARK  197  A    between atoms: _519  and  _520
REMARK  198  A    between atoms: _530  and  _532
REMARK  199  A    between atoms: _532  and  _533
REMARK  200  A    between atoms: _532  and  _535
REMARK  201  A    between atoms: _535  and  _536
REMARK  202  A    between atoms: _539  and  _541
REMARK  203  A    between atoms: _541  and  _542
REMARK  204  A    between atoms: _541  and  _544
REMARK  205  A    between atoms: _544  and  _545
REMARK  206  A    between atoms: _548  and  _550
REMARK  207  A    between atoms: _550  and  _551
REMARK  208  A    between atoms: _550  and  _553
REMARK  209  A    between atoms: _553  and  _554
REMARK  210  A    between atoms: _554  and  _555
REMARK  211  A    between atoms: _555  and  _556
REMARK  212  A    between atoms: _565  and  _567
REMARK  213  A    between atoms: _567  and  _568
REMARK  214  A    between atoms: _567  and  _570
REMARK  215  A    between atoms: _570  and  _571
REMARK  216  A    between atoms: _581  and  _583
REMARK  217  A    between atoms: _583  and  _584
REMARK  218  A    between atoms: _586  and  _588
REMARK  219  A    between atoms: _588  and  _589
REMARK  220  A    between atoms: _588  and  _591
REMARK  221  A    between atoms: _591  and  _592
REMARK  222  A    between atoms: _597  and  _599
REMARK  223  A    between atoms: _599  and  _600
REMARK  224  A    between atoms: _603  and  _605
REMARK  225  A    between atoms: _605  and  _606
REMARK  226  A    between atoms: _605  and  _608
REMARK  227  A    between atoms: _608  and  _609
REMARK  228  A    between atoms: _612  and  _614
REMARK  229  A    between atoms: _614  and  _615
REMARK  230  A    between atoms: _614  and  _617
REMARK  231  A    between atoms: _617  and  _618
REMARK  232  A    between atoms: _624  and  _626
REMARK  233  A    between atoms: _626  and  _627
REMARK  234  A    between atoms: _626  and  _629
REMARK  235  A    between atoms: _629  and  _630
REMARK  236  A    between atoms: _630  and  _631
REMARK  237  A    between atoms: _635  and  _636
REMARK  238  A    between atoms: _641  and  _643
REMARK  239  A    between atoms: _643  and  _644
REMARK  240  A    between atoms: _643  and  _646
REMARK  241  A    between atoms: _646  and  _647
REMARK  242  A    between atoms: _647  and  _648
REMARK  243  A    between atoms: _648  and  _649
REMARK                            x       y       z     vdW  Elec       q    Type
REMARK                         _______ _______ _______ _____ _____    ______ ____
ROOT
ATOM      1  O   HOH     1       2.988 -14.012  26.574  0.00  0.00    +0.000 OA
ENDROOT
TORSDOF 0
REMARK  Name = ../refined-set-2016/3k02/3k02_pocket.pdb
REMARK  243 active torsions:
REMARK  status: ('A' for Active; 'I' for Inactive)
REMARK    1  A    between atoms: _1  and  _3
REMARK    2  A    between atoms: _3  and  _4
REMARK    3  A    between atoms: _3  and  _6
REMARK    4  A    between atoms: _6  and  _7
REMARK    5  A    between atoms: _10  and  _12
REMARK    6  A    between atoms: _12  and  _13
REMARK    7  A    between atoms: _12  and  _15
REMARK    8  A    between atoms: _15  and  _16
REMARK    9  A    between atoms: _19  and  _21
REMARK   10  A    between atoms: _21  and  _22
REMARK   11  A    between atoms: _21  and  _24
REMARK   12  A    between atoms: _24  and  _25
REMARK   13  A    between atoms: _27  and  _29
REMARK   14  A    between atoms: _29  and  _30
REMARK   15  A    between atoms: _29  and  _32
REMARK   16  A    between atoms: _32  and  _33
REMARK   17  A    between atoms: _38  and  _40
REMARK   18  A    between atoms: _40  and  _41
REMARK   19  A    between atoms: _40  and  _43
REMARK   20  A    between atoms: _43  and  _44
REMARK   21  A    between atoms: _44  and  _45
REMARK   22  A    between atoms: _48  and  _50
REMARK   23  A    between atoms: _50  and  _51
REMARK   24  A    between atoms: _54  and  _56
REMARK   25  A    between atoms: _56  and  _57
REMARK   26  A    between atoms: _56  and  _59
REMARK   27  A    between atoms: _59  and  _60
REMARK   28  A    between atoms: _60  and  _61
REMARK   29  A    between atoms: _64  and  _66
REMARK   30  A    between atoms: _66  and  _67
REMARK   31  A    between atoms: _66  and  _69
REMARK   32  A    between atoms: _69  and  _70
REMARK   33  A    between atoms: _70  and  _71
REMARK   34  A    between atoms: _71  and  _72
REMARK   35  A    between atoms: _72  and  _73
REMARK   36  A    between atoms: _77  and  _79
REMARK   37  A    between atoms: _79  and  _80
REMARK   38  A    between atoms: _79  and  _82
REMARK   39  A    between atoms: _82  and  _83
REMARK   40  A    between atoms: _88  and  _89
REMARK   41  A    between atoms: _91  and  _93
REMARK   42  A    between atoms: _93  and  _94
REMARK   43  A    between atoms: _93  and  _96
REMARK   44  A    between atoms: _96  and  _97
REMARK   45  A    between atoms: _102  and  _104
REMARK   46  A    between atoms: _104  and  _105
REMARK   47  A    between atoms: _104  and  _107
REMARK   48  A    between atoms: _111  and  _112
REMARK   49  A    between atoms: _117  and  _119
REMARK   50  A    between atoms: _119  and  _120
REMARK   51  A    between atoms: _119  and  _122
REMARK   52  A    between atoms: _122  and  _123
REMARK   53  A    between atoms: _129  and  _131
REMARK   54  A    between atoms: _131  and  _132
REMARK   55  A    between atoms: _134  and  _136
REMARK   56  A    between atoms: _136  and  _137
REMARK   57  A    between atoms: _136  and  _139
REMARK   58  A    between atoms: _139  and  _140
REMARK   59  A    between atoms: _140  and  _141
REMARK   60  A    between atoms: _144  and  _146
REMARK   61  A    between atoms: _146  and  _147
REMARK   62  A    between atoms: _150  and  _152
REMARK   63  A    between atoms: _152  and  _153
REMARK   64  A    between atoms: _152  and  _155
REMARK   65  A    between atoms: _155  and  _156
REMARK   66  A    between atoms: _161  and  _163
REMARK   67  A    between atoms: _163  and  _164
REMARK   68  A    between atoms: _167  and  _169
REMARK   69  A    between atoms: _169  and  _170
REMARK   70  A    between atoms: _169  and  _172
REMARK   71  A    between atoms: _172  and  _173
REMARK   72  A    between atoms: _173  and  _174
REMARK   73  A    between atoms: _174  and  _175
REMARK   74  A    between atoms: _175  and  _176
REMARK   75  A    between atoms: _180  and  _182
REMARK   76  A    between atoms: _182  and  _183
REMARK   77  A    between atoms: _182  and  _185
REMARK   78  A    between atoms: _185  and  _186
REMARK   79  A    between atoms: _186  and  _187
REMARK   80  A    between atoms: _187  and  _188
REMARK   81  A    between atoms: _197  and  _199
REMARK   82  A    between atoms: _199  and  _200
REMARK   83  A    between atoms: _199  and  _202
REMARK   84  A    between atoms: _202  and  _203
REMARK   85  A    between atoms: _203  and  _204
REMARK   86  A    between atoms: _207  and  _209
REMARK   87  A    between atoms: _209  and  _210
REMARK   88  A    between atoms: _209  and  _212
REMARK   89  A    between atoms: _215  and  _217
REMARK   90  A    between atoms: _217  and  _218
REMARK   91  A    between atoms: _221  and  _223
REMARK   92  A    between atoms: _223  and  _224
REMARK   93  A    between atoms: _223  and  _226
REMARK   94  A    between atoms: _226  and  _227
REMARK   95  A    between atoms: _237  and  _239
REMARK   96  A    between atoms: _239  and  _240
REMARK   97  A    between atoms: _239  and  _242
REMARK   98  A    between atoms: _245  and  _247
REMARK   99  A    between atoms: _247  and  _248
REMARK  100  A    between atoms: _247  and  _250
REMARK  101  A    between atoms: _250  and  _251
REMARK  102  A    between atoms: _254  and  _256
REMARK  103  A    between atoms: _256  and  _257
REMARK  104  A    between atoms: _256  and  _259
REMARK  105  A    between atoms: _259  and  _260
REMARK  106  A    between atoms: _266  and  _268
REMARK  107  A    between atoms: _268  and  _269
REMARK  108  A    between atoms: _268  and  _271
REMARK  109  A    between atoms: _271  and  _272
REMARK  110  A    between atoms: _272  and  _273
REMARK  111  A    between atoms: _278  and  _280
REMARK  112  A    between atoms: _280  and  _281
REMARK  113  A    between atoms: _280  and  _283
REMARK  114  A    between atoms: _286  and  _288
REMARK  115  A    between atoms: _288  and  _289
REMARK  116  A    between atoms: _288  and  _291
REMARK  117  A    between atoms: _291  and  _292
REMARK  118  A    between atoms: _295  and  _297
REMARK  119  A    between atoms: _297  and  _298
REMARK  120  A    between atoms: _297  and  _300
REMARK  121  A    between atoms: _300  and  _301
REMARK  122  A    between atoms: _304  and  _306
REMARK  123  A    between atoms: _306  and  _307
REMARK  124  A    between atoms: _306  and  _309
REMARK  125  A    between atoms: _309  and  _310
REMARK  126  A    between atoms: _313  and  _315
REMARK  127  A    between atoms: _315  and  _316
REMARK  128  A    between atoms: _315  and  _318
REMARK  129  A    between atoms: _318  and  _319
REMARK  130  A    between atoms: _322  and  _324
REMARK  131  A    between atoms: _324  and  _325
REMARK  132  A    between atoms: _324  and  _327
REMARK  133  A    between atoms: _327  and  _328
REMARK  134  A    between atoms: _328  and  _329
REMARK  135  A    between atoms: _329  and  _330
REMARK  136  A    between atoms: _339  and  _341
REMARK  137  A    between atoms: _341  and  _342
REMARK  138  A    between atoms: _341  and  _344
REMARK  139  A    between atoms: _344  and  _345
REMARK  140  A    between atoms: _348  and  _350
REMARK  141  A    between atoms: _350  and  _351
REMARK  142  A    between atoms: _350  and  _353
REMARK  143  A    between atoms: _353  and  _354
REMARK  144  A    between atoms: _358  and  _359
REMARK  145  A    between atoms: _364  and  _366
REMARK  146  A    between atoms: _366  and  _367
REMARK  147  A    between atoms: _366  and  _369
REMARK  148  A    between atoms: _369  and  _370
REMARK  149  A    between atoms: _375  and  _376
REMARK  150  A    between atoms: _378  and  _380
REMARK  151  A    between atoms: _380  and  _381
REMARK  152  A    between atoms: _380  and  _383
REMARK  153  A    between atoms: _383  and  _384
REMARK  154  A    between atoms: _394  and  _396
REMARK  155  A    between atoms: _396  and  _397
REMARK  156  A    between atoms: _396  and  _399
REMARK  157  A    between atoms: _399  and  _400
REMARK  158  A    between atoms: _406  and  _408
REMARK  159  A    between atoms: _408  and  _409
REMARK  160  A    between atoms: _408  and  _411
REMARK  161  A    between atoms: _411  and  _412
REMARK  162  A    between atoms: _415  and  _417
REMARK  163  A    between atoms: _417  and  _418
REMARK  164  A    between atoms: _417  and  _420
REMARK  165  A    between atoms: _420  and  _421
REMARK  166  A    between atoms: _431  and  _433
REMARK  167  A    between atoms: _433  and  _434
REMARK  168  A    between atoms: _433  and  _436
REMARK  169  A    between atoms: _436  and  _437
REMARK  170  A    between atoms: _437  and  _438
REMARK  171  A    between atoms: _440  and  _442
REMARK  172  A    between atoms: _442  and  _443
REMARK  173  A    between atoms: _442  and  _445
REMARK  174  A    between atoms: _445  and  _446
REMARK  175  A    between atoms: _451  and  _453
REMARK  176  A    between atoms: _453  and  _454
REMARK  177  A    between atoms: _457  and  _458
REMARK  178  A    between atoms: _463  and  _465
REMARK  179  A    between atoms: _465  and  _466
REMARK  180  A    between atoms: _465  and  _468
REMARK  181  A    between atoms: _468  and  _469
REMARK  182  A    between atoms: _479  and  _481
REMARK  183  A    between atoms: _481  and  _482
REMARK  184  A    between atoms: _486  and  _487
REMARK  185  A    between atoms: _492  and  _494
REMARK  186  A    between atoms: _494  and  _495
REMARK  187  A    between atoms: _494  and  _497
REMARK  188  A    between atoms: _497  and  _498
REMARK  189  A    between atoms: _498  and  _499
REMARK  190  A    between atoms: _504  and  _506
REMARK  191  A    between atoms: _506  and  _507
REMARK  192  A    between atoms: _509  and  _511
REMARK  193  A    between atoms: _511  and  _512
REMARK  194  A    between atoms: _514  and  _516
REMARK  195  A    between atoms: _516  and  _517
REMARK  196  A    between atoms: _516  and  _519
REMARK  197  A    between atoms: _519  and  _520
REMARK  198  A    between atoms: _530  and  _532
REMARK  199  A    between atoms: _532  and  _533
REMARK  200  A    between atoms: _532  and  _535
REMARK  201  A    between atoms: _535  and  _536
REMARK  202  A    between atoms: _539  and  _541
REMARK  203  A    between atoms: _541  and  _542
REMARK  204  A    between atoms: _541  and  _544
REMARK  205  A    between atoms: _544  and  _545
REMARK  206  A    between atoms: _548  and  _550
REMARK  207  A    between atoms: _550  and  _551
REMARK  208  A    between atoms: _550  and  _553
REMARK  209  A    between atoms: _553  and  _554
REMARK  210  A    between atoms: _554  and  _555
REMARK  211  A    between atoms: _555  and  _556
REMARK  212  A    between atoms: _565  and  _567
REMARK  213  A    between atoms: _567  and  _568
REMARK  214  A    between atoms: _567  and  _570
REMARK  215  A    between atoms: _570  and  _571
REMARK  216  A    between atoms: _581  and  _583
REMARK  217  A    between atoms: _583  and  _584
REMARK  218  A    between atoms: _586  and  _588
REMARK  219  A    between atoms: _588  and  _589
REMARK  220  A    between atoms: _588  and  _591
REMARK  221  A    between atoms: _591  and  _592
REMARK  222  A    between atoms: _597  and  _599
REMARK  223  A    between atoms: _599  and  _600
REMARK  224  A    between atoms: _603  and  _605
REMARK  225  A    between atoms: _605  and  _606
REMARK  226  A    between atoms: _605  and  _608
REMARK  227  A    between atoms: _608  and  _609
REMARK  228  A    between atoms: _612  and  _614
REMARK  229  A    between atoms: _614  and  _615
REMARK  230  A    between atoms: _614  and  _617
REMARK  231  A    between atoms: _617  and  _618
REMARK  232  A    between atoms: _624  and  _626
REMARK  233  A    between atoms: _626  and  _627
REMARK  234  A    between atoms: _626  and  _629
REMARK  235  A    between atoms: _629  and  _630
REMARK  236  A    between atoms: _630  and  _631
REMARK  237  A    between atoms: _635  and  _636
REMARK  238  A    between atoms: _641  and  _643
REMARK  239  A    between atoms: _643  and  _644
REMARK  240  A    between atoms: _643  and  _646
REMARK  241  A    between atoms: _646  and  _647
REMARK  242  A    between atoms: _647  and  _648
REMARK  243  A    between atoms: _648  and  _649
REMARK                            x       y       z     vdW  Elec       q    Type
REMARK                         _______ _______ _______ _____ _____    ______ ____
ROOT
ATOM      1  O   HOH     1      -1.400 -12.186  27.526  0.00  0.00    +0.000 OA
ENDROOT
TORSDOF 0
REMARK  Name = ../refined-set-2016/3k02/3k02_pocket.pdb
REMARK  243 active torsions:
REMARK  status: ('A' for Active; 'I' for Inactive)
REMARK    1  A    between atoms: _1  and  _3
REMARK    2  A    between atoms: _3  and  _4
REMARK    3  A    between atoms: _3  and  _6
REMARK    4  A    between atoms: _6  and  _7
REMARK    5  A    between atoms: _10  and  _12
REMARK    6  A    between atoms: _12  and  _13
REMARK    7  A    between atoms: _12  and  _15
REMARK    8  A    between atoms: _15  and  _16
REMARK    9  A    between atoms: _19  and  _21
REMARK   10  A    between atoms: _21  and  _22
REMARK   11  A    between atoms: _21  and  _24
REMARK   12  A    between atoms: _24  and  _25
REMARK   13  A    between atoms: _27  and  _29
REMARK   14  A    between atoms: _29  and  _30
REMARK   15  A    between atoms: _29  and  _32
REMARK   16  A    between atoms: _32  and  _33
REMARK   17  A    between atoms: _38  and  _40
REMARK   18  A    between atoms: _40  and  _41
REMARK   19  A    between atoms: _40  and  _43
REMARK   20  A    between atoms: _43  and  _44
REMARK   21  A    between atoms: _44  and  _45
REMARK   22  A    between atoms: _48  and  _50
REMARK   23  A    between atoms: _50  and  _51
REMARK   24  A    between atoms: _54  and  _56
REMARK   25  A    between atoms: _56  and  _57
REMARK   26  A    between atoms: _56  and  _59
REMARK   27  A    between atoms: _59  and  _60
REMARK   28  A    between atoms: _60  and  _61
REMARK   29  A    between atoms: _64  and  _66
REMARK   30  A    between atoms: _66  and  _67
REMARK   31  A    between atoms: _66  and  _69
REMARK   32  A    between atoms: _69  and  _70
REMARK   33  A    between atoms: _70  and  _71
REMARK   34  A    between atoms: _71  and  _72
REMARK   35  A    between atoms: _72  and  _73
REMARK   36  A    between atoms: _77  and  _79
REMARK   37  A    between atoms: _79  and  _80
REMARK   38  A    between atoms: _79  and  _82
REMARK   39  A    between atoms: _82  and  _83
REMARK   40  A    between atoms: _88  and  _89
REMARK   41  A    between atoms: _91  and  _93
REMARK   42  A    between atoms: _93  and  _94
REMARK   43  A    between atoms: _93  and  _96
REMARK   44  A    between atoms: _96  and  _97
REMARK   45  A    between atoms: _102  and  _104
REMARK   46  A    between atoms: _104  and  _105
REMARK   47  A    between atoms: _104  and  _107
REMARK   48  A    between atoms: _111  and  _112
REMARK   49  A    between atoms: _117  and  _119
REMARK   50  A    between atoms: _119  and  _120
REMARK   51  A    between atoms: _119  and  _122
REMARK   52  A    between atoms: _122  and  _123
REMARK   53  A    between atoms: _129  and  _131
REMARK   54  A    between atoms: _131  and  _132
REMARK   55  A    between atoms: _134  and  _136
REMARK   56  A    between atoms: _136  and  _137
REMARK   57  A    between atoms: _136  and  _139
REMARK   58  A    between atoms: _139  and  _140
REMARK   59  A    between atoms: _140  and  _141
REMARK   60  A    between atoms: _144  and  _146
REMARK   61  A    between atoms: _146  and  _147
REMARK   62  A    between atoms: _150  and  _152
REMARK   63  A    between atoms: _152  and  _153
REMARK   64  A    between atoms: _152  and  _155
REMARK   65  A    between atoms: _155  and  _156
REMARK   66  A    between atoms: _161  and  _163
REMARK   67  A    between atoms: _163  and  _164
REMARK   68  A    between atoms: _167  and  _169
REMARK   69  A    between atoms: _169  and  _170
REMARK   70  A    between atoms: _169  and  _172
REMARK   71  A    between atoms: _172  and  _173
REMARK   72  A    between atoms: _173  and  _174
REMARK   73  A    between atoms: _174  and  _175
REMARK   74  A    between atoms: _175  and  _176
REMARK   75  A    between atoms: _180  and  _182
REMARK   76  A    between atoms: _182  and  _183
REMARK   77  A    between atoms: _182  and  _185
REMARK   78  A    between atoms: _185  and  _186
REMARK   79  A    between atoms: _186  and  _187
REMARK   80  A    between atoms: _187  and  _188
REMARK   81  A    between atoms: _197  and  _199
REMARK   82  A    between atoms: _199  and  _200
REMARK   83  A    between atoms: _199  and  _202
REMARK   84  A    between atoms: _202  and  _203
REMARK   85  A    between atoms: _203  and  _204
REMARK   86  A    between atoms: _207  and  _209
REMARK   87  A    between atoms: _209  and  _210
REMARK   88  A    between atoms: _209  and  _212
REMARK   89  A    between atoms: _215  and  _217
REMARK   90  A    between atoms: _217  and  _218
REMARK   91  A    between atoms: _221  and  _223
REMARK   92  A    between atoms: _223  and  _224
REMARK   93  A    between atoms: _223  and  _226
REMARK   94  A    between atoms: _226  and  _227
REMARK   95  A    between atoms: _237  and  _239
REMARK   96  A    between atoms: _239  and  _240
REMARK   97  A    between atoms: _239  and  _242
REMARK   98  A    between atoms: _245  and  _247
REMARK   99  A    between atoms: _247  and  _248
REMARK  100  A    between atoms: _247  and  _250
REMARK  101  A    between atoms: _250  and  _251
REMARK  102  A    between atoms: _254  and  _256
REMARK  103  A    between atoms: _256  and  _257
REMARK  104  A    between atoms: _256  and  _259
REMARK  105  A    between atoms: _259  and  _260
REMARK  106  A    between atoms: _266  and  _268
REMARK  107  A    between atoms: _268  and  _269
REMARK  108  A    between atoms: _268  and  _271
REMARK  109  A    between atoms: _271  and  _272
REMARK  110  A    between atoms: _272  and  _273
REMARK  111  A    between atoms: _278  and  _280
REMARK  112  A    between atoms: _280  and  _281
REMARK  113  A    between atoms: _280  and  _283
REMARK  114  A    between atoms: _286  and  _288
REMARK  115  A    between atoms: _288  and  _289
REMARK  116  A    between atoms: _288  and  _291
REMARK  117  A    between atoms: _291  and  _292
REMARK  118  A    between atoms: _295  and  _297
REMARK  119  A    between atoms: _297  and  _298
REMARK  120  A    between atoms: _297  and  _300
REMARK  121  A    between atoms: _300  and  _301
REMARK  122  A    between atoms: _304  and  _306
REMARK  123  A    between atoms: _306  and  _307
REMARK  124  A    between atoms: _306  and  _309
REMARK  125  A    between atoms: _309  and  _310
REMARK  126  A    between atoms: _313  and  _315
REMARK  127  A    between atoms: _315  and  _316
REMARK  128  A    between atoms: _315  and  _318
REMARK  129  A    between atoms: _318  and  _319
REMARK  130  A    between atoms: _322  and  _324
REMARK  131  A    between atoms: _324  and  _325
REMARK  132  A    between atoms: _324  and  _327
REMARK  133  A    between atoms: _327  and  _328
REMARK  134  A    between atoms: _328  and  _329
REMARK  135  A    between atoms: _329  and  _330
REMARK  136  A    between atoms: _339  and  _341
REMARK  137  A    between atoms: _341  and  _342
REMARK  138  A    between atoms: _341  and  _344
REMARK  139  A    between atoms: _344  and  _345
REMARK  140  A    between atoms: _348  and  _350
REMARK  141  A    between atoms: _350  and  _351
REMARK  142  A    between atoms: _350  and  _353
REMARK  143  A    between atoms: _353  and  _354
REMARK  144  A    between atoms: _358  and  _359
REMARK  145  A    between atoms: _364  and  _366
REMARK  146  A    between atoms: _366  and  _367
REMARK  147  A    between atoms: _366  and  _369
REMARK  148  A    between atoms: _369  and  _370
REMARK  149  A    between atoms: _375  and  _376
REMARK  150  A    between atoms: _378  and  _380
REMARK  151  A    between atoms: _380  and  _381
REMARK  152  A    between atoms: _380  and  _383
REMARK  153  A    between atoms: _383  and  _384
REMARK  154  A    between atoms: _394  and  _396
REMARK  155  A    between atoms: _396  and  _397
REMARK  156  A    between atoms: _396  and  _399
REMARK  157  A    between atoms: _399  and  _400
REMARK  158  A    between atoms: _406  and  _408
REMARK  159  A    between atoms: _408  and  _409
REMARK  160  A    between atoms: _408  and  _411
REMARK  161  A    between atoms: _411  and  _412
REMARK  162  A    between atoms: _415  and  _417
REMARK  163  A    between atoms: _417  and  _418
REMARK  164  A    between atoms: _417  and  _420
REMARK  165  A    between atoms: _420  and  _421
REMARK  166  A    between atoms: _431  and  _433
REMARK  167  A    between atoms: _433  and  _434
REMARK  168  A    between atoms: _433  and  _436
REMARK  169  A    between atoms: _436  and  _437
REMARK  170  A    between atoms: _437  and  _438
REMARK  171  A    between atoms: _440  and  _442
REMARK  172  A    between atoms: _442  and  _443
REMARK  173  A    between atoms: _442  and  _445
REMARK  174  A    between atoms: _445  and  _446
REMARK  175  A    between atoms: _451  and  _453
REMARK  176  A    between atoms: _453  and  _454
REMARK  177  A    between atoms: _457  and  _458
REMARK  178  A    between atoms: _463  and  _465
REMARK  179  A    between atoms: _465  and  _466
REMARK  180  A    between atoms: _465  and  _468
REMARK  181  A    between atoms: _468  and  _469
REMARK  182  A    between atoms: _479  and  _481
REMARK  183  A    between atoms: _481  and  _482
REMARK  184  A    between atoms: _486  and  _487
REMARK  185  A    between atoms: _492  and  _494
REMARK  186  A    between atoms: _494  and  _495
REMARK  187  A    between atoms: _494  and  _497
REMARK  188  A    between atoms: _497  and  _498
REMARK  189  A    between atoms: _498  and  _499
REMARK  190  A    between atoms: _504  and  _506
REMARK  191  A    between atoms: _506  and  _507
REMARK  192  A    between atoms: _509  and  _511
REMARK  193  A    between atoms: _511  and  _512
REMARK  194  A    between atoms: _514  and  _516
REMARK  195  A    between atoms: _516  and  _517
REMARK  196  A    between atoms: _516  and  _519
REMARK  197  A    between atoms: _519  and  _520
REMARK  198  A    between atoms: _530  and  _532
REMARK  199  A    between atoms: _532  and  _533
REMARK  200  A    between atoms: _532  and  _535
REMARK  201  A    between atoms: _535  and  _536
REMARK  202  A    between atoms: _539  and  _541
REMARK  203  A    between atoms: _541  and  _542
REMARK  204  A    between atoms: _541  and  _544
REMARK  205  A    between atoms: _544  and  _545
REMARK  206  A    between atoms: _548  and  _550
REMARK  207  A    between atoms: _550  and  _551
REMARK  208  A    between atoms: _550  and  _553
REMARK  209  A    between atoms: _553  and  _554
REMARK  210  A    between atoms: _554  and  _555
REMARK  211  A    between atoms: _555  and  _556
REMARK  212  A    between atoms: _565  and  _567
REMARK  213  A    between atoms: _567  and  _568
REMARK  214  A    between atoms: _567  and  _570
REMARK  215  A    between atoms: _570  and  _571
REMARK  216  A    between atoms: _581  and  _583
REMARK  217  A    between atoms: _583  and  _584
REMARK  218  A    between atoms: _586  and  _588
REMARK  219  A    between atoms: _588  and  _589
REMARK  220  A    between atoms: _588  and  _591
REMARK  221  A    between atoms: _591  and  _592
REMARK  222  A    between atoms: _597  and  _599
REMARK  223  A    between atoms: _599  and  _600
REMARK  224  A    between atoms: _603  and  _605
REMARK  225  A    between atoms: _605  and  _606
REMARK  226  A    between atoms: _605  and  _608
REMARK  227  A    between atoms: _608  and  _609
REMARK  228  A    between atoms: _612  and  _614
REMARK  229  A    between atoms: _614  and  _615
REMARK  230  A    between atoms: _614  and  _617
REMARK  231  A    between atoms: _617  and  _618
REMARK  232  A    between atoms: _624  and  _626
REMARK  233  A    between atoms: _626  and  _627
REMARK  234  A    between atoms: _626  and  _629
REMARK  235  A    between atoms: _629  and  _630
REMARK  236  A    between atoms: _630  and  _631
REMARK  237  A    between atoms: _635  and  _636
REMARK  238  A    between atoms: _641  and  _643
REMARK  239  A    between atoms: _643  and  _644
REMARK  240  A    between atoms: _643  and  _646
REMARK  241  A    between atoms: _646  and  _647
REMARK  242  A    between atoms: _647  and  _648
REMARK  243  A    between atoms: _648  and  _649
REMARK                            x       y       z     vdW  Elec       q    Type
REMARK                         _______ _______ _______ _____ _____    ______ ____
ROOT
ATOM      1  O   HOH     1      -8.571 -19.544  26.659  0.00  0.00    +0.000 OA
ENDROOT
TORSDOF 0
REMARK  Name = ../refined-set-2016/3k02/3k02_pocket.pdb
REMARK  243 active torsions:
REMARK  status: ('A' for Active; 'I' for Inactive)
REMARK    1  A    between atoms: _1  and  _3
REMARK    2  A    between atoms: _3  and  _4
REMARK    3  A    between atoms: _3  and  _6
REMARK    4  A    between atoms: _6  and  _7
REMARK    5  A    between atoms: _10  and  _12
REMARK    6  A    between atoms: _12  and  _13
REMARK    7  A    between atoms: _12  and  _15
REMARK    8  A    between atoms: _15  and  _16
REMARK    9  A    between atoms: _19  and  _21
REMARK   10  A    between atoms: _21  and  _22
REMARK   11  A    between atoms: _21  and  _24
REMARK   12  A    between atoms: _24  and  _25
REMARK   13  A    between atoms: _27  and  _29
REMARK   14  A    between atoms: _29  and  _30
REMARK   15  A    between atoms: _29  and  _32
REMARK   16  A    between atoms: _32  and  _33
REMARK   17  A    between atoms: _38  and  _40
REMARK   18  A    between atoms: _40  and  _41
REMARK   19  A    between atoms: _40  and  _43
REMARK   20  A    between atoms: _43  and  _44
REMARK   21  A    between atoms: _44  and  _45
REMARK   22  A    between atoms: _48  and  _50
REMARK   23  A    between atoms: _50  and  _51
REMARK   24  A    between atoms: _54  and  _56
REMARK   25  A    between atoms: _56  and  _57
REMARK   26  A    between atoms: _56  and  _59
REMARK   27  A    between atoms: _59  and  _60
REMARK   28  A    between atoms: _60  and  _61
REMARK   29  A    between atoms: _64  and  _66
REMARK   30  A    between atoms: _66  and  _67
REMARK   31  A    between atoms: _66  and  _69
REMARK   32  A    between atoms: _69  and  _70
REMARK   33  A    between atoms: _70  and  _71
REMARK   34  A    between atoms: _71  and  _72
REMARK   35  A    between atoms: _72  and  _73
REMARK   36  A    between atoms: _77  and  _79
REMARK   37  A    between atoms: _79  and  _80
REMARK   38  A    between atoms: _79  and  _82
REMARK   39  A    between atoms: _82  and  _83
REMARK   40  A    between atoms: _88  and  _89
REMARK   41  A    between atoms: _91  and  _93
REMARK   42  A    between atoms: _93  and  _94
REMARK   43  A    between atoms: _93  and  _96
REMARK   44  A    between atoms: _96  and  _97
REMARK   45  A    between atoms: _102  and  _104
REMARK   46  A    between atoms: _104  and  _105
REMARK   47  A    between atoms: _104  and  _107
REMARK   48  A    between atoms: _111  and  _112
REMARK   49  A    between atoms: _117  and  _119
REMARK   50  A    between atoms: _119  and  _120
REMARK   51  A    between atoms: _119  and  _122
REMARK   52  A    between atoms: _122  and  _123
REMARK   53  A    between atoms: _129  and  _131
REMARK   54  A    between atoms: _131  and  _132
REMARK   55  A    between atoms: _134  and  _136
REMARK   56  A    between atoms: _136  and  _137
REMARK   57  A    between atoms: _136  and  _139
REMARK   58  A    between atoms: _139  and  _140
REMARK   59  A    between atoms: _140  and  _141
REMARK   60  A    between atoms: _144  and  _146
REMARK   61  A    between atoms: _146  and  _147
REMARK   62  A    between atoms: _150  and  _152
REMARK   63  A    between atoms: _152  and  _153
REMARK   64  A    between atoms: _152  and  _155
REMARK   65  A    between atoms: _155  and  _156
REMARK   66  A    between atoms: _161  and  _163
REMARK   67  A    between atoms: _163  and  _164
REMARK   68  A    between atoms: _167  and  _169
REMARK   69  A    between atoms: _169  and  _170
REMARK   70  A    between atoms: _169  and  _172
REMARK   71  A    between atoms: _172  and  _173
REMARK   72  A    between atoms: _173  and  _174
REMARK   73  A    between atoms: _174  and  _175
REMARK   74  A    between atoms: _175  and  _176
REMARK   75  A    between atoms: _180  and  _182
REMARK   76  A    between atoms: _182  and  _183
REMARK   77  A    between atoms: _182  and  _185
REMARK   78  A    between atoms: _185  and  _186
REMARK   79  A    between atoms: _186  and  _187
REMARK   80  A    between atoms: _187  and  _188
REMARK   81  A    between atoms: _197  and  _199
REMARK   82  A    between atoms: _199  and  _200
REMARK   83  A    between atoms: _199  and  _202
REMARK   84  A    between atoms: _202  and  _203
REMARK   85  A    between atoms: _203  and  _204
REMARK   86  A    between atoms: _207  and  _209
REMARK   87  A    between atoms: _209  and  _210
REMARK   88  A    between atoms: _209  and  _212
REMARK   89  A    between atoms: _215  and  _217
REMARK   90  A    between atoms: _217  and  _218
REMARK   91  A    between atoms: _221  and  _223
REMARK   92  A    between atoms: _223  and  _224
REMARK   93  A    between atoms: _223  and  _226
REMARK   94  A    between atoms: _226  and  _227
REMARK   95  A    between atoms: _237  and  _239
REMARK   96  A    between atoms: _239  and  _240
REMARK   97  A    between atoms: _239  and  _242
REMARK   98  A    between atoms: _245  and  _247
REMARK   99  A    between atoms: _247  and  _248
REMARK  100  A    between atoms: _247  and  _250
REMARK  101  A    between atoms: _250  and  _251
REMARK  102  A    between atoms: _254  and  _256
REMARK  103  A    between atoms: _256  and  _257
REMARK  104  A    between atoms: _256  and  _259
REMARK  105  A    between atoms: _259  and  _260
REMARK  106  A    between atoms: _266  and  _268
REMARK  107  A    between atoms: _268  and  _269
REMARK  108  A    between atoms: _268  and  _271
REMARK  109  A    between atoms: _271  and  _272
REMARK  110  A    between atoms: _272  and  _273
REMARK  111  A    between atoms: _278  and  _280
REMARK  112  A    between atoms: _280  and  _281
REMARK  113  A    between atoms: _280  and  _283
REMARK  114  A    between atoms: _286  and  _288
REMARK  115  A    between atoms: _288  and  _289
REMARK  116  A    between atoms: _288  and  _291
REMARK  117  A    between atoms: _291  and  _292
REMARK  118  A    between atoms: _295  and  _297
REMARK  119  A    between atoms: _297  and  _298
REMARK  120  A    between atoms: _297  and  _300
REMARK  121  A    between atoms: _300  and  _301
REMARK  122  A    between atoms: _304  and  _306
REMARK  123  A    between atoms: _306  and  _307
REMARK  124  A    between atoms: _306  and  _309
REMARK  125  A    between atoms: _309  and  _310
REMARK  126  A    between atoms: _313  and  _315
REMARK  127  A    between atoms: _315  and  _316
REMARK  128  A    between atoms: _315  and  _318
REMARK  129  A    between atoms: _318  and  _319
REMARK  130  A    between atoms: _322  and  _324
REMARK  131  A    between atoms: _324  and  _325
REMARK  132  A    between atoms: _324  and  _327
REMARK  133  A    between atoms: _327  and  _328
REMARK  134  A    between atoms: _328  and  _329
REMARK  135  A    between atoms: _329  and  _330
REMARK  136  A    between atoms: _339  and  _341
REMARK  137  A    between atoms: _341  and  _342
REMARK  138  A    between atoms: _341  and  _344
REMARK  139  A    between atoms: _344  and  _345
REMARK  140  A    between atoms: _348  and  _350
REMARK  141  A    between atoms: _350  and  _351
REMARK  142  A    between atoms: _350  and  _353
REMARK  143  A    between atoms: _353  and  _354
REMARK  144  A    between atoms: _358  and  _359
REMARK  145  A    between atoms: _364  and  _366
REMARK  146  A    between atoms: _366  and  _367
REMARK  147  A    between atoms: _366  and  _369
REMARK  148  A    between atoms: _369  and  _370
REMARK  149  A    between atoms: _375  and  _376
REMARK  150  A    between atoms: _378  and  _380
REMARK  151  A    between atoms: _380  and  _381
REMARK  152  A    between atoms: _380  and  _383
REMARK  153  A    between atoms: _383  and  _384
REMARK  154  A    between atoms: _394  and  _396
REMARK  155  A    between atoms: _396  and  _397
REMARK  156  A    between atoms: _396  and  _399
REMARK  157  A    between atoms: _399  and  _400
REMARK  158  A    between atoms: _406  and  _408
REMARK  159  A    between atoms: _408  and  _409
REMARK  160  A    between atoms: _408  and  _411
REMARK  161  A    between atoms: _411  and  _412
REMARK  162  A    between atoms: _415  and  _417
REMARK  163  A    between atoms: _417  and  _418
REMARK  164  A    between atoms: _417  and  _420
REMARK  165  A    between atoms: _420  and  _421
REMARK  166  A    between atoms: _431  and  _433
REMARK  167  A    between atoms: _433  and  _434
REMARK  168  A    between atoms: _433  and  _436
REMARK  169  A    between atoms: _436  and  _437
REMARK  170  A    between atoms: _437  and  _438
REMARK  171  A    between atoms: _440  and  _442
REMARK  172  A    between atoms: _442  and  _443
REMARK  173  A    between atoms: _442  and  _445
REMARK  174  A    between atoms: _445  and  _446
REMARK  175  A    between atoms: _451  and  _453
REMARK  176  A    between atoms: _453  and  _454
REMARK  177  A    between atoms: _457  and  _458
REMARK  178  A    between atoms: _463  and  _465
REMARK  179  A    between atoms: _465  and  _466
REMARK  180  A    between atoms: _465  and  _468
REMARK  181  A    between atoms: _468  and  _469
REMARK  182  A    between atoms: _479  and  _481
REMARK  183  A    between atoms: _481  and  _482
REMARK  184  A    between atoms: _486  and  _487
REMARK  185  A    between atoms: _492  and  _494
REMARK  186  A    between atoms: _494  and  _495
REMARK  187  A    between atoms: _494  and  _497
REMARK  188  A    between atoms: _497  and  _498
REMARK  189  A    between atoms: _498  and  _499
REMARK  190  A    between atoms: _504  and  _506
REMARK  191  A    between atoms: _506  and  _507
REMARK  192  A    between atoms: _509  and  _511
REMARK  193  A    between atoms: _511  and  _512
REMARK  194  A    between atoms: _514  and  _516
REMARK  195  A    between atoms: _516  and  _517
REMARK  196  A    between atoms: _516  and  _519
REMARK  197  A    between atoms: _519  and  _520
REMARK  198  A    between atoms: _530  and  _532
REMARK  199  A    between atoms: _532  and  _533
REMARK  200  A    between atoms: _532  and  _535
REMARK  201  A    between atoms: _535  and  _536
REMARK  202  A    between atoms: _539  and  _541
REMARK  203  A    between atoms: _541  and  _542
REMARK  204  A    between atoms: _541  and  _544
REMARK  205  A    between atoms: _544  and  _545
REMARK  206  A    between atoms: _548  and  _550
REMARK  207  A    between atoms: _550  and  _551
REMARK  208  A    between atoms: _550  and  _553
REMARK  209  A    between atoms: _553  and  _554
REMARK  210  A    between atoms: _554  and  _555
REMARK  211  A    between atoms: _555  and  _556
REMARK  212  A    between atoms: _565  and  _567
REMARK  213  A    between atoms: _567  and  _568
REMARK  214  A    between atoms: _567  and  _570
REMARK  215  A    between atoms: _570  and  _571
REMARK  216  A    between atoms: _581  and  _583
REMARK  217  A    between atoms: _583  and  _584
REMARK  218  A    between atoms: _586  and  _588
REMARK  219  A    between atoms: _588  and  _589
REMARK  220  A    between atoms: _588  and  _591
REMARK  221  A    between atoms: _591  and  _592
REMARK  222  A    between atoms: _597  and  _599
REMARK  223  A    between atoms: _599  and  _600
REMARK  224  A    between atoms: _603  and  _605
REMARK  225  A    between atoms: _605  and  _606
REMARK  226  A    between atoms: _605  and  _608
REMARK  227  A    between atoms: _608  and  _609
REMARK  228  A    between atoms: _612  and  _614
REMARK  229  A    between atoms: _614  and  _615
REMARK  230  A    between atoms: _614  and  _617
REMARK  231  A    between atoms: _617  and  _618
REMARK  232  A    between atoms: _624  and  _626
REMARK  233  A    between atoms: _626  and  _627
REMARK  234  A    between atoms: _626  and  _629
REMARK  235  A    between atoms: _629  and  _630
REMARK  236  A    between atoms: _630  and  _631
REMARK  237  A    between atoms: _635  and  _636
REMARK  238  A    between atoms: _641  and  _643
REMARK  239  A    between atoms: _643  and  _644
REMARK  240  A    between atoms: _643  and  _646
REMARK  241  A    between atoms: _646  and  _647
REMARK  242  A    between atoms: _647  and  _648
REMARK  243  A    between atoms: _648  and  _649
REMARK                            x       y       z     vdW  Elec       q    Type
REMARK                         _______ _______ _______ _____ _____    ______ ____
ROOT
ATOM      1  O   HOH     1     -10.888  -7.030  19.397  0.00  0.00    +0.000 OA
ENDROOT
TORSDOF 0
REMARK  Name = ../refined-set-2016/3k02/3k02_pocket.pdb
REMARK  243 active torsions:
REMARK  status: ('A' for Active; 'I' for Inactive)
REMARK    1  A    between atoms: _1  and  _3
REMARK    2  A    between atoms: _3  and  _4
REMARK    3  A    between atoms: _3  and  _6
REMARK    4  A    between atoms: _6  and  _7
REMARK    5  A    between atoms: _10  and  _12
REMARK    6  A    between atoms: _12  and  _13
REMARK    7  A    between atoms: _12  and  _15
REMARK    8  A    between atoms: _15  and  _16
REMARK    9  A    between atoms: _19  and  _21
REMARK   10  A    between atoms: _21  and  _22
REMARK   11  A    between atoms: _21  and  _24
REMARK   12  A    between atoms: _24  and  _25
REMARK   13  A    between atoms: _27  and  _29
REMARK   14  A    between atoms: _29  and  _30
REMARK   15  A    between atoms: _29  and  _32
REMARK   16  A    between atoms: _32  and  _33
REMARK   17  A    between atoms: _38  and  _40
REMARK   18  A    between atoms: _40  and  _41
REMARK   19  A    between atoms: _40  and  _43
REMARK   20  A    between atoms: _43  and  _44
REMARK   21  A    between atoms: _44  and  _45
REMARK   22  A    between atoms: _48  and  _50
REMARK   23  A    between atoms: _50  and  _51
REMARK   24  A    between atoms: _54  and  _56
REMARK   25  A    between atoms: _56  and  _57
REMARK   26  A    between atoms: _56  and  _59
REMARK   27  A    between atoms: _59  and  _60
REMARK   28  A    between atoms: _60  and  _61
REMARK   29  A    between atoms: _64  and  _66
REMARK   30  A    between atoms: _66  and  _67
REMARK   31  A    between atoms: _66  and  _69
REMARK   32  A    between atoms: _69  and  _70
REMARK   33  A    between atoms: _70  and  _71
REMARK   34  A    between atoms: _71  and  _72
REMARK   35  A    between atoms: _72  and  _73
REMARK   36  A    between atoms: _77  and  _79
REMARK   37  A    between atoms: _79  and  _80
REMARK   38  A    between atoms: _79  and  _82
REMARK   39  A    between atoms: _82  and  _83
REMARK   40  A    between atoms: _88  and  _89
REMARK   41  A    between atoms: _91  and  _93
REMARK   42  A    between atoms: _93  and  _94
REMARK   43  A    between atoms: _93  and  _96
REMARK   44  A    between atoms: _96  and  _97
REMARK   45  A    between atoms: _102  and  _104
REMARK   46  A    between atoms: _104  and  _105
REMARK   47  A    between atoms: _104  and  _107
REMARK   48  A    between atoms: _111  and  _112
REMARK   49  A    between atoms: _117  and  _119
REMARK   50  A    between atoms: _119  and  _120
REMARK   51  A    between atoms: _119  and  _122
REMARK   52  A    between atoms: _122  and  _123
REMARK   53  A    between atoms: _129  and  _131
REMARK   54  A    between atoms: _131  and  _132
REMARK   55  A    between atoms: _134  and  _136
REMARK   56  A    between atoms: _136  and  _137
REMARK   57  A    between atoms: _136  and  _139
REMARK   58  A    between atoms: _139  and  _140
REMARK   59  A    between atoms: _140  and  _141
REMARK   60  A    between atoms: _144  and  _146
REMARK   61  A    between atoms: _146  and  _147
REMARK   62  A    between atoms: _150  and  _152
REMARK   63  A    between atoms: _152  and  _153
REMARK   64  A    between atoms: _152  and  _155
REMARK   65  A    between atoms: _155  and  _156
REMARK   66  A    between atoms: _161  and  _163
REMARK   67  A    between atoms: _163  and  _164
REMARK   68  A    between atoms: _167  and  _169
REMARK   69  A    between atoms: _169  and  _170
REMARK   70  A    between atoms: _169  and  _172
REMARK   71  A    between atoms: _172  and  _173
REMARK   72  A    between atoms: _173  and  _174
REMARK   73  A    between atoms: _174  and  _175
REMARK   74  A    between atoms: _175  and  _176
REMARK   75  A    between atoms: _180  and  _182
REMARK   76  A    between atoms: _182  and  _183
REMARK   77  A    between atoms: _182  and  _185
REMARK   78  A    between atoms: _185  and  _186
REMARK   79  A    between atoms: _186  and  _187
REMARK   80  A    between atoms: _187  and  _188
REMARK   81  A    between atoms: _197  and  _199
REMARK   82  A    between atoms: _199  and  _200
REMARK   83  A    between atoms: _199  and  _202
REMARK   84  A    between atoms: _202  and  _203
REMARK   85  A    between atoms: _203  and  _204
REMARK   86  A    between atoms: _207  and  _209
REMARK   87  A    between atoms: _209  and  _210
REMARK   88  A    between atoms: _209  and  _212
REMARK   89  A    between atoms: _215  and  _217
REMARK   90  A    between atoms: _217  and  _218
REMARK   91  A    between atoms: _221  and  _223
REMARK   92  A    between atoms: _223  and  _224
REMARK   93  A    between atoms: _223  and  _226
REMARK   94  A    between atoms: _226  and  _227
REMARK   95  A    between atoms: _237  and  _239
REMARK   96  A    between atoms: _239  and  _240
REMARK   97  A    between atoms: _239  and  _242
REMARK   98  A    between atoms: _245  and  _247
REMARK   99  A    between atoms: _247  and  _248
REMARK  100  A    between atoms: _247  and  _250
REMARK  101  A    between atoms: _250  and  _251
REMARK  102  A    between atoms: _254  and  _256
REMARK  103  A    between atoms: _256  and  _257
REMARK  104  A    between atoms: _256  and  _259
REMARK  105  A    between atoms: _259  and  _260
REMARK  106  A    between atoms: _266  and  _268
REMARK  107  A    between atoms: _268  and  _269
REMARK  108  A    between atoms: _268  and  _271
REMARK  109  A    between atoms: _271  and  _272
REMARK  110  A    between atoms: _272  and  _273
REMARK  111  A    between atoms: _278  and  _280
REMARK  112  A    between atoms: _280  and  _281
REMARK  113  A    between atoms: _280  and  _283
REMARK  114  A    between atoms: _286  and  _288
REMARK  115  A    between atoms: _288  and  _289
REMARK  116  A    between atoms: _288  and  _291
REMARK  117  A    between atoms: _291  and  _292
REMARK  118  A    between atoms: _295  and  _297
REMARK  119  A    between atoms: _297  and  _298
REMARK  120  A    between atoms: _297  and  _300
REMARK  121  A    between atoms: _300  and  _301
REMARK  122  A    between atoms: _304  and  _306
REMARK  123  A    between atoms: _306  and  _307
REMARK  124  A    between atoms: _306  and  _309
REMARK  125  A    between atoms: _309  and  _310
REMARK  126  A    between atoms: _313  and  _315
REMARK  127  A    between atoms: _315  and  _316
REMARK  128  A    between atoms: _315  and  _318
REMARK  129  A    between atoms: _318  and  _319
REMARK  130  A    between atoms: _322  and  _324
REMARK  131  A    between atoms: _324  and  _325
REMARK  132  A    between atoms: _324  and  _327
REMARK  133  A    between atoms: _327  and  _328
REMARK  134  A    between atoms: _328  and  _329
REMARK  135  A    between atoms: _329  and  _330
REMARK  136  A    between atoms: _339  and  _341
REMARK  137  A    between atoms: _341  and  _342
REMARK  138  A    between atoms: _341  and  _344
REMARK  139  A    between atoms: _344  and  _345
REMARK  140  A    between atoms: _348  and  _350
REMARK  141  A    between atoms: _350  and  _351
REMARK  142  A    between atoms: _350  and  _353
REMARK  143  A    between atoms: _353  and  _354
REMARK  144  A    between atoms: _358  and  _359
REMARK  145  A    between atoms: _364  and  _366
REMARK  146  A    between atoms: _366  and  _367
REMARK  147  A    between atoms: _366  and  _369
REMARK  148  A    between atoms: _369  and  _370
REMARK  149  A    between atoms: _375  and  _376
REMARK  150  A    between atoms: _378  and  _380
REMARK  151  A    between atoms: _380  and  _381
REMARK  152  A    between atoms: _380  and  _383
REMARK  153  A    between atoms: _383  and  _384
REMARK  154  A    between atoms: _394  and  _396
REMARK  155  A    between atoms: _396  and  _397
REMARK  156  A    between atoms: _396  and  _399
REMARK  157  A    between atoms: _399  and  _400
REMARK  158  A    between atoms: _406  and  _408
REMARK  159  A    between atoms: _408  and  _409
REMARK  160  A    between atoms: _408  and  _411
REMARK  161  A    between atoms: _411  and  _412
REMARK  162  A    between atoms: _415  and  _417
REMARK  163  A    between atoms: _417  and  _418
REMARK  164  A    between atoms: _417  and  _420
REMARK  165  A    between atoms: _420  and  _421
REMARK  166  A    between atoms: _431  and  _433
REMARK  167  A    between atoms: _433  and  _434
REMARK  168  A    between atoms: _433  and  _436
REMARK  169  A    between atoms: _436  and  _437
REMARK  170  A    between atoms: _437  and  _438
REMARK  171  A    between atoms: _440  and  _442
REMARK  172  A    between atoms: _442  and  _443
REMARK  173  A    between atoms: _442  and  _445
REMARK  174  A    between atoms: _445  and  _446
REMARK  175  A    between atoms: _451  and  _453
REMARK  176  A    between atoms: _453  and  _454
REMARK  177  A    between atoms: _457  and  _458
REMARK  178  A    between atoms: _463  and  _465
REMARK  179  A    between atoms: _465  and  _466
REMARK  180  A    between atoms: _465  and  _468
REMARK  181  A    between atoms: _468  and  _469
REMARK  182  A    between atoms: _479  and  _481
REMARK  183  A    between atoms: _481  and  _482
REMARK  184  A    between atoms: _486  and  _487
REMARK  185  A    between atoms: _492  and  _494
REMARK  186  A    between atoms: _494  and  _495
REMARK  187  A    between atoms: _494  and  _497
REMARK  188  A    between atoms: _497  and  _498
REMARK  189  A    between atoms: _498  and  _499
REMARK  190  A    between atoms: _504  and  _506
REMARK  191  A    between atoms: _506  and  _507
REMARK  192  A    between atoms: _509  and  _511
REMARK  193  A    between atoms: _511  and  _512
REMARK  194  A    between atoms: _514  and  _516
REMARK  195  A    between atoms: _516  and  _517
REMARK  196  A    between atoms: _516  and  _519
REMARK  197  A    between atoms: _519  and  _520
REMARK  198  A    between atoms: _530  and  _532
REMARK  199  A    between atoms: _532  and  _533
REMARK  200  A    between atoms: _532  and  _535
REMARK  201  A    between atoms: _535  and  _536
REMARK  202  A    between atoms: _539  and  _541
REMARK  203  A    between atoms: _541  and  _542
REMARK  204  A    between atoms: _541  and  _544
REMARK  205  A    between atoms: _544  and  _545
REMARK  206  A    between atoms: _548  and  _550
REMARK  207  A    between atoms: _550  and  _551
REMARK  208  A    between atoms: _550  and  _553
REMARK  209  A    between atoms: _553  and  _554
REMARK  210  A    between atoms: _554  and  _555
REMARK  211  A    between atoms: _555  and  _556
REMARK  212  A    between atoms: _565  and  _567
REMARK  213  A    between atoms: _567  and  _568
REMARK  214  A    between atoms: _567  and  _570
REMARK  215  A    between atoms: _570  and  _571
REMARK  216  A    between atoms: _581  and  _583
REMARK  217  A    between atoms: _583  and  _584
REMARK  218  A    between atoms: _586  and  _588
REMARK  219  A    between atoms: _588  and  _589
REMARK  220  A    between atoms: _588  and  _591
REMARK  221  A    between atoms: _591  and  _592
REMARK  222  A    between atoms: _597  and  _599
REMARK  223  A    between atoms: _599  and  _600
REMARK  224  A    between atoms: _603  and  _605
REMARK  225  A    between atoms: _605  and  _606
REMARK  226  A    between atoms: _605  and  _608
REMARK  227  A    between atoms: _608  and  _609
REMARK  228  A    between atoms: _612  and  _614
REMARK  229  A    between atoms: _614  and  _615
REMARK  230  A    between atoms: _614  and  _617
REMARK  231  A    between atoms: _617  and  _618
REMARK  232  A    between atoms: _624  and  _626
REMARK  233  A    between atoms: _626  and  _627
REMARK  234  A    between atoms: _626  and  _629
REMARK  235  A    between atoms: _629  and  _630
REMARK  236  A    between atoms: _630  and  _631
REMARK  237  A    between atoms: _635  and  _636
REMARK  238  A    between atoms: _641  and  _643
REMARK  239  A    between atoms: _643  and  _644
REMARK  240  A    between atoms: _643  and  _646
REMARK  241  A    between atoms: _646  and  _647
REMARK  242  A    between atoms: _647  and  _648
REMARK  243  A    between atoms: _648  and  _649
REMARK                            x       y       z     vdW  Elec       q    Type
REMARK                         _______ _______ _______ _____ _____    ______ ____
ROOT
ATOM      1  O   HOH     1      -9.578  -9.428  20.608  0.00  0.00    +0.000 OA
ENDROOT
TORSDOF 0
REMARK  Name = ../refined-set-2016/3k02/3k02_pocket.pdb
REMARK  243 active torsions:
REMARK  status: ('A' for Active; 'I' for Inactive)
REMARK    1  A    between atoms: _1  and  _3
REMARK    2  A    between atoms: _3  and  _4
REMARK    3  A    between atoms: _3  and  _6
REMARK    4  A    between atoms: _6  and  _7
REMARK    5  A    between atoms: _10  and  _12
REMARK    6  A    between atoms: _12  and  _13
REMARK    7  A    between atoms: _12  and  _15
REMARK    8  A    between atoms: _15  and  _16
REMARK    9  A    between atoms: _19  and  _21
REMARK   10  A    between atoms: _21  and  _22
REMARK   11  A    between atoms: _21  and  _24
REMARK   12  A    between atoms: _24  and  _25
REMARK   13  A    between atoms: _27  and  _29
REMARK   14  A    between atoms: _29  and  _30
REMARK   15  A    between atoms: _29  and  _32
REMARK   16  A    between atoms: _32  and  _33
REMARK   17  A    between atoms: _38  and  _40
REMARK   18  A    between atoms: _40  and  _41
REMARK   19  A    between atoms: _40  and  _43
REMARK   20  A    between atoms: _43  and  _44
REMARK   21  A    between atoms: _44  and  _45
REMARK   22  A    between atoms: _48  and  _50
REMARK   23  A    between atoms: _50  and  _51
REMARK   24  A    between atoms: _54  and  _56
REMARK   25  A    between atoms: _56  and  _57
REMARK   26  A    between atoms: _56  and  _59
REMARK   27  A    between atoms: _59  and  _60
REMARK   28  A    between atoms: _60  and  _61
REMARK   29  A    between atoms: _64  and  _66
REMARK   30  A    between atoms: _66  and  _67
REMARK   31  A    between atoms: _66  and  _69
REMARK   32  A    between atoms: _69  and  _70
REMARK   33  A    between atoms: _70  and  _71
REMARK   34  A    between atoms: _71  and  _72
REMARK   35  A    between atoms: _72  and  _73
REMARK   36  A    between atoms: _77  and  _79
REMARK   37  A    between atoms: _79  and  _80
REMARK   38  A    between atoms: _79  and  _82
REMARK   39  A    between atoms: _82  and  _83
REMARK   40  A    between atoms: _88  and  _89
REMARK   41  A    between atoms: _91  and  _93
REMARK   42  A    between atoms: _93  and  _94
REMARK   43  A    between atoms: _93  and  _96
REMARK   44  A    between atoms: _96  and  _97
REMARK   45  A    between atoms: _102  and  _104
REMARK   46  A    between atoms: _104  and  _105
REMARK   47  A    between atoms: _104  and  _107
REMARK   48  A    between atoms: _111  and  _112
REMARK   49  A    between atoms: _117  and  _119
REMARK   50  A    between atoms: _119  and  _120
REMARK   51  A    between atoms: _119  and  _122
REMARK   52  A    between atoms: _122  and  _123
REMARK   53  A    between atoms: _129  and  _131
REMARK   54  A    between atoms: _131  and  _132
REMARK   55  A    between atoms: _134  and  _136
REMARK   56  A    between atoms: _136  and  _137
REMARK   57  A    between atoms: _136  and  _139
REMARK   58  A    between atoms: _139  and  _140
REMARK   59  A    between atoms: _140  and  _141
REMARK   60  A    between atoms: _144  and  _146
REMARK   61  A    between atoms: _146  and  _147
REMARK   62  A    between atoms: _150  and  _152
REMARK   63  A    between atoms: _152  and  _153
REMARK   64  A    between atoms: _152  and  _155
REMARK   65  A    between atoms: _155  and  _156
REMARK   66  A    between atoms: _161  and  _163
REMARK   67  A    between atoms: _163  and  _164
REMARK   68  A    between atoms: _167  and  _169
REMARK   69  A    between atoms: _169  and  _170
REMARK   70  A    between atoms: _169  and  _172
REMARK   71  A    between atoms: _172  and  _173
REMARK   72  A    between atoms: _173  and  _174
REMARK   73  A    between atoms: _174  and  _175
REMARK   74  A    between atoms: _175  and  _176
REMARK   75  A    between atoms: _180  and  _182
REMARK   76  A    between atoms: _182  and  _183
REMARK   77  A    between atoms: _182  and  _185
REMARK   78  A    between atoms: _185  and  _186
REMARK   79  A    between atoms: _186  and  _187
REMARK   80  A    between atoms: _187  and  _188
REMARK   81  A    between atoms: _197  and  _199
REMARK   82  A    between atoms: _199  and  _200
REMARK   83  A    between atoms: _199  and  _202
REMARK   84  A    between atoms: _202  and  _203
REMARK   85  A    between atoms: _203  and  _204
REMARK   86  A    between atoms: _207  and  _209
REMARK   87  A    between atoms: _209  and  _210
REMARK   88  A    between atoms: _209  and  _212
REMARK   89  A    between atoms: _215  and  _217
REMARK   90  A    between atoms: _217  and  _218
REMARK   91  A    between atoms: _221  and  _223
REMARK   92  A    between atoms: _223  and  _224
REMARK   93  A    between atoms: _223  and  _226
REMARK   94  A    between atoms: _226  and  _227
REMARK   95  A    between atoms: _237  and  _239
REMARK   96  A    between atoms: _239  and  _240
REMARK   97  A    between atoms: _239  and  _242
REMARK   98  A    between atoms: _245  and  _247
REMARK   99  A    between atoms: _247  and  _248
REMARK  100  A    between atoms: _247  and  _250
REMARK  101  A    between atoms: _250  and  _251
REMARK  102  A    between atoms: _254  and  _256
REMARK  103  A    between atoms: _256  and  _257
REMARK  104  A    between atoms: _256  and  _259
REMARK  105  A    between atoms: _259  and  _260
REMARK  106  A    between atoms: _266  and  _268
REMARK  107  A    between atoms: _268  and  _269
REMARK  108  A    between atoms: _268  and  _271
REMARK  109  A    between atoms: _271  and  _272
REMARK  110  A    between atoms: _272  and  _273
REMARK  111  A    between atoms: _278  and  _280
REMARK  112  A    between atoms: _280  and  _281
REMARK  113  A    between atoms: _280  and  _283
REMARK  114  A    between atoms: _286  and  _288
REMARK  115  A    between atoms: _288  and  _289
REMARK  116  A    between atoms: _288  and  _291
REMARK  117  A    between atoms: _291  and  _292
REMARK  118  A    between atoms: _295  and  _297
REMARK  119  A    between atoms: _297  and  _298
REMARK  120  A    between atoms: _297  and  _300
REMARK  121  A    between atoms: _300  and  _301
REMARK  122  A    between atoms: _304  and  _306
REMARK  123  A    between atoms: _306  and  _307
REMARK  124  A    between atoms: _306  and  _309
REMARK  125  A    between atoms: _309  and  _310
REMARK  126  A    between atoms: _313  and  _315
REMARK  127  A    between atoms: _315  and  _316
REMARK  128  A    between atoms: _315  and  _318
REMARK  129  A    between atoms: _318  and  _319
REMARK  130  A    between atoms: _322  and  _324
REMARK  131  A    between atoms: _324  and  _325
REMARK  132  A    between atoms: _324  and  _327
REMARK  133  A    between atoms: _327  and  _328
REMARK  134  A    between atoms: _328  and  _329
REMARK  135  A    between atoms: _329  and  _330
REMARK  136  A    between atoms: _339  and  _341
REMARK  137  A    between atoms: _341  and  _342
REMARK  138  A    between atoms: _341  and  _344
REMARK  139  A    between atoms: _344  and  _345
REMARK  140  A    between atoms: _348  and  _350
REMARK  141  A    between atoms: _350  and  _351
REMARK  142  A    between atoms: _350  and  _353
REMARK  143  A    between atoms: _353  and  _354
REMARK  144  A    between atoms: _358  and  _359
REMARK  145  A    between atoms: _364  and  _366
REMARK  146  A    between atoms: _366  and  _367
REMARK  147  A    between atoms: _366  and  _369
REMARK  148  A    between atoms: _369  and  _370
REMARK  149  A    between atoms: _375  and  _376
REMARK  150  A    between atoms: _378  and  _380
REMARK  151  A    between atoms: _380  and  _381
REMARK  152  A    between atoms: _380  and  _383
REMARK  153  A    between atoms: _383  and  _384
REMARK  154  A    between atoms: _394  and  _396
REMARK  155  A    between atoms: _396  and  _397
REMARK  156  A    between atoms: _396  and  _399
REMARK  157  A    between atoms: _399  and  _400
REMARK  158  A    between atoms: _406  and  _408
REMARK  159  A    between atoms: _408  and  _409
REMARK  160  A    between atoms: _408  and  _411
REMARK  161  A    between atoms: _411  and  _412
REMARK  162  A    between atoms: _415  and  _417
REMARK  163  A    between atoms: _417  and  _418
REMARK  164  A    between atoms: _417  and  _420
REMARK  165  A    between atoms: _420  and  _421
REMARK  166  A    between atoms: _431  and  _433
REMARK  167  A    between atoms: _433  and  _434
REMARK  168  A    between atoms: _433  and  _436
REMARK  169  A    between atoms: _436  and  _437
REMARK  170  A    between atoms: _437  and  _438
REMARK  171  A    between atoms: _440  and  _442
REMARK  172  A    between atoms: _442  and  _443
REMARK  173  A    between atoms: _442  and  _445
REMARK  174  A    between atoms: _445  and  _446
REMARK  175  A    between atoms: _451  and  _453
REMARK  176  A    between atoms: _453  and  _454
REMARK  177  A    between atoms: _457  and  _458
REMARK  178  A    between atoms: _463  and  _465
REMARK  179  A    between atoms: _465  and  _466
REMARK  180  A    between atoms: _465  and  _468
REMARK  181  A    between atoms: _468  and  _469
REMARK  182  A    between atoms: _479  and  _481
REMARK  183  A    between atoms: _481  and  _482
REMARK  184  A    between atoms: _486  and  _487
REMARK  185  A    between atoms: _492  and  _494
REMARK  186  A    between atoms: _494  and  _495
REMARK  187  A    between atoms: _494  and  _497
REMARK  188  A    between atoms: _497  and  _498
REMARK  189  A    between atoms: _498  and  _499
REMARK  190  A    between atoms: _504  and  _506
REMARK  191  A    between atoms: _506  and  _507
REMARK  192  A    between atoms: _509  and  _511
REMARK  193  A    between atoms: _511  and  _512
REMARK  194  A    between atoms: _514  and  _516
REMARK  195  A    between atoms: _516  and  _517
REMARK  196  A    between atoms: _516  and  _519
REMARK  197  A    between atoms: _519  and  _520
REMARK  198  A    between atoms: _530  and  _532
REMARK  199  A    between atoms: _532  and  _533
REMARK  200  A    between atoms: _532  and  _535
REMARK  201  A    between atoms: _535  and  _536
REMARK  202  A    between atoms: _539  and  _541
REMARK  203  A    between atoms: _541  and  _542
REMARK  204  A    between atoms: _541  and  _544
REMARK  205  A    between atoms: _544  and  _545
REMARK  206  A    between atoms: _548  and  _550
REMARK  207  A    between atoms: _550  and  _551
REMARK  208  A    between atoms: _550  and  _553
REMARK  209  A    between atoms: _553  and  _554
REMARK  210  A    between atoms: _554  and  _555
REMARK  211  A    between atoms: _555  and  _556
REMARK  212  A    between atoms: _565  and  _567
REMARK  213  A    between atoms: _567  and  _568
REMARK  214  A    between atoms: _567  and  _570
REMARK  215  A    between atoms: _570  and  _571
REMARK  216  A    between atoms: _581  and  _583
REMARK  217  A    between atoms: _583  and  _584
REMARK  218  A    between atoms: _586  and  _588
REMARK  219  A    between atoms: _588  and  _589
REMARK  220  A    between atoms: _588  and  _591
REMARK  221  A    between atoms: _591  and  _592
REMARK  222  A    between atoms: _597  and  _599
REMARK  223  A    between atoms: _599  and  _600
REMARK  224  A    between atoms: _603  and  _605
REMARK  225  A    between atoms: _605  and  _606
REMARK  226  A    between atoms: _605  and  _608
REMARK  227  A    between atoms: _608  and  _609
REMARK  228  A    between atoms: _612  and  _614
REMARK  229  A    between atoms: _614  and  _615
REMARK  230  A    between atoms: _614  and  _617
REMARK  231  A    between atoms: _617  and  _618
REMARK  232  A    between atoms: _624  and  _626
REMARK  233  A    between atoms: _626  and  _627
REMARK  234  A    between atoms: _626  and  _629
REMARK  235  A    between atoms: _629  and  _630
REMARK  236  A    between atoms: _630  and  _631
REMARK  237  A    between atoms: _635  and  _636
REMARK  238  A    between atoms: _641  and  _643
REMARK  239  A    between atoms: _643  and  _644
REMARK  240  A    between atoms: _643  and  _646
REMARK  241  A    between atoms: _646  and  _647
REMARK  242  A    between atoms: _647  and  _648
REMARK  243  A    between atoms: _648  and  _649
REMARK                            x       y       z     vdW  Elec       q    Type
REMARK                         _______ _______ _______ _____ _____    ______ ____
ROOT
ATOM      1  O   HOH     1      -6.222  -3.909   9.106  0.00  0.00    +0.000 OA
ENDROOT
TORSDOF 0
REMARK  Name = ../refined-set-2016/3k02/3k02_pocket.pdb
REMARK  243 active torsions:
REMARK  status: ('A' for Active; 'I' for Inactive)
REMARK    1  A    between atoms: _1  and  _3
REMARK    2  A    between atoms: _3  and  _4
REMARK    3  A    between atoms: _3  and  _6
REMARK    4  A    between atoms: _6  and  _7
REMARK    5  A    between atoms: _10  and  _12
REMARK    6  A    between atoms: _12  and  _13
REMARK    7  A    between atoms: _12  and  _15
REMARK    8  A    between atoms: _15  and  _16
REMARK    9  A    between atoms: _19  and  _21
REMARK   10  A    between atoms: _21  and  _22
REMARK   11  A    between atoms: _21  and  _24
REMARK   12  A    between atoms: _24  and  _25
REMARK   13  A    between atoms: _27  and  _29
REMARK   14  A    between atoms: _29  and  _30
REMARK   15  A    between atoms: _29  and  _32
REMARK   16  A    between atoms: _32  and  _33
REMARK   17  A    between atoms: _38  and  _40
REMARK   18  A    between atoms: _40  and  _41
REMARK   19  A    between atoms: _40  and  _43
REMARK   20  A    between atoms: _43  and  _44
REMARK   21  A    between atoms: _44  and  _45
REMARK   22  A    between atoms: _48  and  _50
REMARK   23  A    between atoms: _50  and  _51
REMARK   24  A    between atoms: _54  and  _56
REMARK   25  A    between atoms: _56  and  _57
REMARK   26  A    between atoms: _56  and  _59
REMARK   27  A    between atoms: _59  and  _60
REMARK   28  A    between atoms: _60  and  _61
REMARK   29  A    between atoms: _64  and  _66
REMARK   30  A    between atoms: _66  and  _67
REMARK   31  A    between atoms: _66  and  _69
REMARK   32  A    between atoms: _69  and  _70
REMARK   33  A    between atoms: _70  and  _71
REMARK   34  A    between atoms: _71  and  _72
REMARK   35  A    between atoms: _72  and  _73
REMARK   36  A    between atoms: _77  and  _79
REMARK   37  A    between atoms: _79  and  _80
REMARK   38  A    between atoms: _79  and  _82
REMARK   39  A    between atoms: _82  and  _83
REMARK   40  A    between atoms: _88  and  _89
REMARK   41  A    between atoms: _91  and  _93
REMARK   42  A    between atoms: _93  and  _94
REMARK   43  A    between atoms: _93  and  _96
REMARK   44  A    between atoms: _96  and  _97
REMARK   45  A    between atoms: _102  and  _104
REMARK   46  A    between atoms: _104  and  _105
REMARK   47  A    between atoms: _104  and  _107
REMARK   48  A    between atoms: _111  and  _112
REMARK   49  A    between atoms: _117  and  _119
REMARK   50  A    between atoms: _119  and  _120
REMARK   51  A    between atoms: _119  and  _122
REMARK   52  A    between atoms: _122  and  _123
REMARK   53  A    between atoms: _129  and  _131
REMARK   54  A    between atoms: _131  and  _132
REMARK   55  A    between atoms: _134  and  _136
REMARK   56  A    between atoms: _136  and  _137
REMARK   57  A    between atoms: _136  and  _139
REMARK   58  A    between atoms: _139  and  _140
REMARK   59  A    between atoms: _140  and  _141
REMARK   60  A    between atoms: _144  and  _146
REMARK   61  A    between atoms: _146  and  _147
REMARK   62  A    between atoms: _150  and  _152
REMARK   63  A    between atoms: _152  and  _153
REMARK   64  A    between atoms: _152  and  _155
REMARK   65  A    between atoms: _155  and  _156
REMARK   66  A    between atoms: _161  and  _163
REMARK   67  A    between atoms: _163  and  _164
REMARK   68  A    between atoms: _167  and  _169
REMARK   69  A    between atoms: _169  and  _170
REMARK   70  A    between atoms: _169  and  _172
REMARK   71  A    between atoms: _172  and  _173
REMARK   72  A    between atoms: _173  and  _174
REMARK   73  A    between atoms: _174  and  _175
REMARK   74  A    between atoms: _175  and  _176
REMARK   75  A    between atoms: _180  and  _182
REMARK   76  A    between atoms: _182  and  _183
REMARK   77  A    between atoms: _182  and  _185
REMARK   78  A    between atoms: _185  and  _186
REMARK   79  A    between atoms: _186  and  _187
REMARK   80  A    between atoms: _187  and  _188
REMARK   81  A    between atoms: _197  and  _199
REMARK   82  A    between atoms: _199  and  _200
REMARK   83  A    between atoms: _199  and  _202
REMARK   84  A    between atoms: _202  and  _203
REMARK   85  A    between atoms: _203  and  _204
REMARK   86  A    between atoms: _207  and  _209
REMARK   87  A    between atoms: _209  and  _210
REMARK   88  A    between atoms: _209  and  _212
REMARK   89  A    between atoms: _215  and  _217
REMARK   90  A    between atoms: _217  and  _218
REMARK   91  A    between atoms: _221  and  _223
REMARK   92  A    between atoms: _223  and  _224
REMARK   93  A    between atoms: _223  and  _226
REMARK   94  A    between atoms: _226  and  _227
REMARK   95  A    between atoms: _237  and  _239
REMARK   96  A    between atoms: _239  and  _240
REMARK   97  A    between atoms: _239  and  _242
REMARK   98  A    between atoms: _245  and  _247
REMARK   99  A    between atoms: _247  and  _248
REMARK  100  A    between atoms: _247  and  _250
REMARK  101  A    between atoms: _250  and  _251
REMARK  102  A    between atoms: _254  and  _256
REMARK  103  A    between atoms: _256  and  _257
REMARK  104  A    between atoms: _256  and  _259
REMARK  105  A    between atoms: _259  and  _260
REMARK  106  A    between atoms: _266  and  _268
REMARK  107  A    between atoms: _268  and  _269
REMARK  108  A    between atoms: _268  and  _271
REMARK  109  A    between atoms: _271  and  _272
REMARK  110  A    between atoms: _272  and  _273
REMARK  111  A    between atoms: _278  and  _280
REMARK  112  A    between atoms: _280  and  _281
REMARK  113  A    between atoms: _280  and  _283
REMARK  114  A    between atoms: _286  and  _288
REMARK  115  A    between atoms: _288  and  _289
REMARK  116  A    between atoms: _288  and  _291
REMARK  117  A    between atoms: _291  and  _292
REMARK  118  A    between atoms: _295  and  _297
REMARK  119  A    between atoms: _297  and  _298
REMARK  120  A    between atoms: _297  and  _300
REMARK  121  A    between atoms: _300  and  _301
REMARK  122  A    between atoms: _304  and  _306
REMARK  123  A    between atoms: _306  and  _307
REMARK  124  A    between atoms: _306  and  _309
REMARK  125  A    between atoms: _309  and  _310
REMARK  126  A    between atoms: _313  and  _315
REMARK  127  A    between atoms: _315  and  _316
REMARK  128  A    between atoms: _315  and  _318
REMARK  129  A    between atoms: _318  and  _319
REMARK  130  A    between atoms: _322  and  _324
REMARK  131  A    between atoms: _324  and  _325
REMARK  132  A    between atoms: _324  and  _327
REMARK  133  A    between atoms: _327  and  _328
REMARK  134  A    between atoms: _328  and  _329
REMARK  135  A    between atoms: _329  and  _330
REMARK  136  A    between atoms: _339  and  _341
REMARK  137  A    between atoms: _341  and  _342
REMARK  138  A    between atoms: _341  and  _344
REMARK  139  A    between atoms: _344  and  _345
REMARK  140  A    between atoms: _348  and  _350
REMARK  141  A    between atoms: _350  and  _351
REMARK  142  A    between atoms: _350  and  _353
REMARK  143  A    between atoms: _353  and  _354
REMARK  144  A    between atoms: _358  and  _359
REMARK  145  A    between atoms: _364  and  _366
REMARK  146  A    between atoms: _366  and  _367
REMARK  147  A    between atoms: _366  and  _369
REMARK  148  A    between atoms: _369  and  _370
REMARK  149  A    between atoms: _375  and  _376
REMARK  150  A    between atoms: _378  and  _380
REMARK  151  A    between atoms: _380  and  _381
REMARK  152  A    between atoms: _380  and  _383
REMARK  153  A    between atoms: _383  and  _384
REMARK  154  A    between atoms: _394  and  _396
REMARK  155  A    between atoms: _396  and  _397
REMARK  156  A    between atoms: _396  and  _399
REMARK  157  A    between atoms: _399  and  _400
REMARK  158  A    between atoms: _406  and  _408
REMARK  159  A    between atoms: _408  and  _409
REMARK  160  A    between atoms: _408  and  _411
REMARK  161  A    between atoms: _411  and  _412
REMARK  162  A    between atoms: _415  and  _417
REMARK  163  A    between atoms: _417  and  _418
REMARK  164  A    between atoms: _417  and  _420
REMARK  165  A    between atoms: _420  and  _421
REMARK  166  A    between atoms: _431  and  _433
REMARK  167  A    between atoms: _433  and  _434
REMARK  168  A    between atoms: _433  and  _436
REMARK  169  A    between atoms: _436  and  _437
REMARK  170  A    between atoms: _437  and  _438
REMARK  171  A    between atoms: _440  and  _442
REMARK  172  A    between atoms: _442  and  _443
REMARK  173  A    between atoms: _442  and  _445
REMARK  174  A    between atoms: _445  and  _446
REMARK  175  A    between atoms: _451  and  _453
REMARK  176  A    between atoms: _453  and  _454
REMARK  177  A    between atoms: _457  and  _458
REMARK  178  A    between atoms: _463  and  _465
REMARK  179  A    between atoms: _465  and  _466
REMARK  180  A    between atoms: _465  and  _468
REMARK  181  A    between atoms: _468  and  _469
REMARK  182  A    between atoms: _479  and  _481
REMARK  183  A    between atoms: _481  and  _482
REMARK  184  A    between atoms: _486  and  _487
REMARK  185  A    between atoms: _492  and  _494
REMARK  186  A    between atoms: _494  and  _495
REMARK  187  A    between atoms: _494  and  _497
REMARK  188  A    between atoms: _497  and  _498
REMARK  189  A    between atoms: _498  and  _499
REMARK  190  A    between atoms: _504  and  _506
REMARK  191  A    between atoms: _506  and  _507
REMARK  192  A    between atoms: _509  and  _511
REMARK  193  A    between atoms: _511  and  _512
REMARK  194  A    between atoms: _514  and  _516
REMARK  195  A    between atoms: _516  and  _517
REMARK  196  A    between atoms: _516  and  _519
REMARK  197  A    between atoms: _519  and  _520
REMARK  198  A    between atoms: _530  and  _532
REMARK  199  A    between atoms: _532  and  _533
REMARK  200  A    between atoms: _532  and  _535
REMARK  201  A    between atoms: _535  and  _536
REMARK  202  A    between atoms: _539  and  _541
REMARK  203  A    between atoms: _541  and  _542
REMARK  204  A    between atoms: _541  and  _544
REMARK  205  A    between atoms: _544  and  _545
REMARK  206  A    between atoms: _548  and  _550
REMARK  207  A    between atoms: _550  and  _551
REMARK  208  A    between atoms: _550  and  _553
REMARK  209  A    between atoms: _553  and  _554
REMARK  210  A    between atoms: _554  and  _555
REMARK  211  A    between atoms: _555  and  _556
REMARK  212  A    between atoms: _565  and  _567
REMARK  213  A    between atoms: _567  and  _568
REMARK  214  A    between atoms: _567  and  _570
REMARK  215  A    between atoms: _570  and  _571
REMARK  216  A    between atoms: _581  and  _583
REMARK  217  A    between atoms: _583  and  _584
REMARK  218  A    between atoms: _586  and  _588
REMARK  219  A    between atoms: _588  and  _589
REMARK  220  A    between atoms: _588  and  _591
REMARK  221  A    between atoms: _591  and  _592
REMARK  222  A    between atoms: _597  and  _599
REMARK  223  A    between atoms: _599  and  _600
REMARK  224  A    between atoms: _603  and  _605
REMARK  225  A    between atoms: _605  and  _606
REMARK  226  A    between atoms: _605  and  _608
REMARK  227  A    between atoms: _608  and  _609
REMARK  228  A    between atoms: _612  and  _614
REMARK  229  A    between atoms: _614  and  _615
REMARK  230  A    between atoms: _614  and  _617
REMARK  231  A    between atoms: _617  and  _618
REMARK  232  A    between atoms: _624  and  _626
REMARK  233  A    between atoms: _626  and  _627
REMARK  234  A    between atoms: _626  and  _629
REMARK  235  A    between atoms: _629  and  _630
REMARK  236  A    between atoms: _630  and  _631
REMARK  237  A    between atoms: _635  and  _636
REMARK  238  A    between atoms: _641  and  _643
REMARK  239  A    between atoms: _643  and  _644
REMARK  240  A    between atoms: _643  and  _646
REMARK  241  A    between atoms: _646  and  _647
REMARK  242  A    between atoms: _647  and  _648
REMARK  243  A    between atoms: _648  and  _649
REMARK                            x       y       z     vdW  Elec       q    Type
REMARK                         _______ _______ _______ _____ _____    ______ ____
ROOT
ATOM      1  O   HOH     1     -11.536 -11.066  21.366  0.00  0.00    +0.000 OA
ENDROOT
TORSDOF 0
REMARK  Name = ../refined-set-2016/3k02/3k02_pocket.pdb
REMARK  243 active torsions:
REMARK  status: ('A' for Active; 'I' for Inactive)
REMARK    1  A    between atoms: _1  and  _3
REMARK    2  A    between atoms: _3  and  _4
REMARK    3  A    between atoms: _3  and  _6
REMARK    4  A    between atoms: _6  and  _7
REMARK    5  A    between atoms: _10  and  _12
REMARK    6  A    between atoms: _12  and  _13
REMARK    7  A    between atoms: _12  and  _15
REMARK    8  A    between atoms: _15  and  _16
REMARK    9  A    between atoms: _19  and  _21
REMARK   10  A    between atoms: _21  and  _22
REMARK   11  A    between atoms: _21  and  _24
REMARK   12  A    between atoms: _24  and  _25
REMARK   13  A    between atoms: _27  and  _29
REMARK   14  A    between atoms: _29  and  _30
REMARK   15  A    between atoms: _29  and  _32
REMARK   16  A    between atoms: _32  and  _33
REMARK   17  A    between atoms: _38  and  _40
REMARK   18  A    between atoms: _40  and  _41
REMARK   19  A    between atoms: _40  and  _43
REMARK   20  A    between atoms: _43  and  _44
REMARK   21  A    between atoms: _44  and  _45
REMARK   22  A    between atoms: _48  and  _50
REMARK   23  A    between atoms: _50  and  _51
REMARK   24  A    between atoms: _54  and  _56
REMARK   25  A    between atoms: _56  and  _57
REMARK   26  A    between atoms: _56  and  _59
REMARK   27  A    between atoms: _59  and  _60
REMARK   28  A    between atoms: _60  and  _61
REMARK   29  A    between atoms: _64  and  _66
REMARK   30  A    between atoms: _66  and  _67
REMARK   31  A    between atoms: _66  and  _69
REMARK   32  A    between atoms: _69  and  _70
REMARK   33  A    between atoms: _70  and  _71
REMARK   34  A    between atoms: _71  and  _72
REMARK   35  A    between atoms: _72  and  _73
REMARK   36  A    between atoms: _77  and  _79
REMARK   37  A    between atoms: _79  and  _80
REMARK   38  A    between atoms: _79  and  _82
REMARK   39  A    between atoms: _82  and  _83
REMARK   40  A    between atoms: _88  and  _89
REMARK   41  A    between atoms: _91  and  _93
REMARK   42  A    between atoms: _93  and  _94
REMARK   43  A    between atoms: _93  and  _96
REMARK   44  A    between atoms: _96  and  _97
REMARK   45  A    between atoms: _102  and  _104
REMARK   46  A    between atoms: _104  and  _105
REMARK   47  A    between atoms: _104  and  _107
REMARK   48  A    between atoms: _111  and  _112
REMARK   49  A    between atoms: _117  and  _119
REMARK   50  A    between atoms: _119  and  _120
REMARK   51  A    between atoms: _119  and  _122
REMARK   52  A    between atoms: _122  and  _123
REMARK   53  A    between atoms: _129  and  _131
REMARK   54  A    between atoms: _131  and  _132
REMARK   55  A    between atoms: _134  and  _136
REMARK   56  A    between atoms: _136  and  _137
REMARK   57  A    between atoms: _136  and  _139
REMARK   58  A    between atoms: _139  and  _140
REMARK   59  A    between atoms: _140  and  _141
REMARK   60  A    between atoms: _144  and  _146
REMARK   61  A    between atoms: _146  and  _147
REMARK   62  A    between atoms: _150  and  _152
REMARK   63  A    between atoms: _152  and  _153
REMARK   64  A    between atoms: _152  and  _155
REMARK   65  A    between atoms: _155  and  _156
REMARK   66  A    between atoms: _161  and  _163
REMARK   67  A    between atoms: _163  and  _164
REMARK   68  A    between atoms: _167  and  _169
REMARK   69  A    between atoms: _169  and  _170
REMARK   70  A    between atoms: _169  and  _172
REMARK   71  A    between atoms: _172  and  _173
REMARK   72  A    between atoms: _173  and  _174
REMARK   73  A    between atoms: _174  and  _175
REMARK   74  A    between atoms: _175  and  _176
REMARK   75  A    between atoms: _180  and  _182
REMARK   76  A    between atoms: _182  and  _183
REMARK   77  A    between atoms: _182  and  _185
REMARK   78  A    between atoms: _185  and  _186
REMARK   79  A    between atoms: _186  and  _187
REMARK   80  A    between atoms: _187  and  _188
REMARK   81  A    between atoms: _197  and  _199
REMARK   82  A    between atoms: _199  and  _200
REMARK   83  A    between atoms: _199  and  _202
REMARK   84  A    between atoms: _202  and  _203
REMARK   85  A    between atoms: _203  and  _204
REMARK   86  A    between atoms: _207  and  _209
REMARK   87  A    between atoms: _209  and  _210
REMARK   88  A    between atoms: _209  and  _212
REMARK   89  A    between atoms: _215  and  _217
REMARK   90  A    between atoms: _217  and  _218
REMARK   91  A    between atoms: _221  and  _223
REMARK   92  A    between atoms: _223  and  _224
REMARK   93  A    between atoms: _223  and  _226
REMARK   94  A    between atoms: _226  and  _227
REMARK   95  A    between atoms: _237  and  _239
REMARK   96  A    between atoms: _239  and  _240
REMARK   97  A    between atoms: _239  and  _242
REMARK   98  A    between atoms: _245  and  _247
REMARK   99  A    between atoms: _247  and  _248
REMARK  100  A    between atoms: _247  and  _250
REMARK  101  A    between atoms: _250  and  _251
REMARK  102  A    between atoms: _254  and  _256
REMARK  103  A    between atoms: _256  and  _257
REMARK  104  A    between atoms: _256  and  _259
REMARK  105  A    between atoms: _259  and  _260
REMARK  106  A    between atoms: _266  and  _268
REMARK  107  A    between atoms: _268  and  _269
REMARK  108  A    between atoms: _268  and  _271
REMARK  109  A    between atoms: _271  and  _272
REMARK  110  A    between atoms: _272  and  _273
REMARK  111  A    between atoms: _278  and  _280
REMARK  112  A    between atoms: _280  and  _281
REMARK  113  A    between atoms: _280  and  _283
REMARK  114  A    between atoms: _286  and  _288
REMARK  115  A    between atoms: _288  and  _289
REMARK  116  A    between atoms: _288  and  _291
REMARK  117  A    between atoms: _291  and  _292
REMARK  118  A    between atoms: _295  and  _297
REMARK  119  A    between atoms: _297  and  _298
REMARK  120  A    between atoms: _297  and  _300
REMARK  121  A    between atoms: _300  and  _301
REMARK  122  A    between atoms: _304  and  _306
REMARK  123  A    between atoms: _306  and  _307
REMARK  124  A    between atoms: _306  and  _309
REMARK  125  A    between atoms: _309  and  _310
REMARK  126  A    between atoms: _313  and  _315
REMARK  127  A    between atoms: _315  and  _316
REMARK  128  A    between atoms: _315  and  _318
REMARK  129  A    between atoms: _318  and  _319
REMARK  130  A    between atoms: _322  and  _324
REMARK  131  A    between atoms: _324  and  _325
REMARK  132  A    between atoms: _324  and  _327
REMARK  133  A    between atoms: _327  and  _328
REMARK  134  A    between atoms: _328  and  _329
REMARK  135  A    between atoms: _329  and  _330
REMARK  136  A    between atoms: _339  and  _341
REMARK  137  A    between atoms: _341  and  _342
REMARK  138  A    between atoms: _341  and  _344
REMARK  139  A    between atoms: _344  and  _345
REMARK  140  A    between atoms: _348  and  _350
REMARK  141  A    between atoms: _350  and  _351
REMARK  142  A    between atoms: _350  and  _353
REMARK  143  A    between atoms: _353  and  _354
REMARK  144  A    between atoms: _358  and  _359
REMARK  145  A    between atoms: _364  and  _366
REMARK  146  A    between atoms: _366  and  _367
REMARK  147  A    between atoms: _366  and  _369
REMARK  148  A    between atoms: _369  and  _370
REMARK  149  A    between atoms: _375  and  _376
REMARK  150  A    between atoms: _378  and  _380
REMARK  151  A    between atoms: _380  and  _381
REMARK  152  A    between atoms: _380  and  _383
REMARK  153  A    between atoms: _383  and  _384
REMARK  154  A    between atoms: _394  and  _396
REMARK  155  A    between atoms: _396  and  _397
REMARK  156  A    between atoms: _396  and  _399
REMARK  157  A    between atoms: _399  and  _400
REMARK  158  A    between atoms: _406  and  _408
REMARK  159  A    between atoms: _408  and  _409
REMARK  160  A    between atoms: _408  and  _411
REMARK  161  A    between atoms: _411  and  _412
REMARK  162  A    between atoms: _415  and  _417
REMARK  163  A    between atoms: _417  and  _418
REMARK  164  A    between atoms: _417  and  _420
REMARK  165  A    between atoms: _420  and  _421
REMARK  166  A    between atoms: _431  and  _433
REMARK  167  A    between atoms: _433  and  _434
REMARK  168  A    between atoms: _433  and  _436
REMARK  169  A    between atoms: _436  and  _437
REMARK  170  A    between atoms: _437  and  _438
REMARK  171  A    between atoms: _440  and  _442
REMARK  172  A    between atoms: _442  and  _443
REMARK  173  A    between atoms: _442  and  _445
REMARK  174  A    between atoms: _445  and  _446
REMARK  175  A    between atoms: _451  and  _453
REMARK  176  A    between atoms: _453  and  _454
REMARK  177  A    between atoms: _457  and  _458
REMARK  178  A    between atoms: _463  and  _465
REMARK  179  A    between atoms: _465  and  _466
REMARK  180  A    between atoms: _465  and  _468
REMARK  181  A    between atoms: _468  and  _469
REMARK  182  A    between atoms: _479  and  _481
REMARK  183  A    between atoms: _481  and  _482
REMARK  184  A    between atoms: _486  and  _487
REMARK  185  A    between atoms: _492  and  _494
REMARK  186  A    between atoms: _494  and  _495
REMARK  187  A    between atoms: _494  and  _497
REMARK  188  A    between atoms: _497  and  _498
REMARK  189  A    between atoms: _498  and  _499
REMARK  190  A    between atoms: _504  and  _506
REMARK  191  A    between atoms: _506  and  _507
REMARK  192  A    between atoms: _509  and  _511
REMARK  193  A    between atoms: _511  and  _512
REMARK  194  A    between atoms: _514  and  _516
REMARK  195  A    between atoms: _516  and  _517
REMARK  196  A    between atoms: _516  and  _519
REMARK  197  A    between atoms: _519  and  _520
REMARK  198  A    between atoms: _530  and  _532
REMARK  199  A    between atoms: _532  and  _533
REMARK  200  A    between atoms: _532  and  _535
REMARK  201  A    between atoms: _535  and  _536
REMARK  202  A    between atoms: _539  and  _541
REMARK  203  A    between atoms: _541  and  _542
REMARK  204  A    between atoms: _541  and  _544
REMARK  205  A    between atoms: _544  and  _545
REMARK  206  A    between atoms: _548  and  _550
REMARK  207  A    between atoms: _550  and  _551
REMARK  208  A    between atoms: _550  and  _553
REMARK  209  A    between atoms: _553  and  _554
REMARK  210  A    between atoms: _554  and  _555
REMARK  211  A    between atoms: _555  and  _556
REMARK  212  A    between atoms: _565  and  _567
REMARK  213  A    between atoms: _567  and  _568
REMARK  214  A    between atoms: _567  and  _570
REMARK  215  A    between atoms: _570  and  _571
REMARK  216  A    between atoms: _581  and  _583
REMARK  217  A    between atoms: _583  and  _584
REMARK  218  A    between atoms: _586  and  _588
REMARK  219  A    between atoms: _588  and  _589
REMARK  220  A    between atoms: _588  and  _591
REMARK  221  A    between atoms: _591  and  _592
REMARK  222  A    between atoms: _597  and  _599
REMARK  223  A    between atoms: _599  and  _600
REMARK  224  A    between atoms: _603  and  _605
REMARK  225  A    between atoms: _605  and  _606
REMARK  226  A    between atoms: _605  and  _608
REMARK  227  A    between atoms: _608  and  _609
REMARK  228  A    between atoms: _612  and  _614
REMARK  229  A    between atoms: _614  and  _615
REMARK  230  A    between atoms: _614  and  _617
REMARK  231  A    between atoms: _617  and  _618
REMARK  232  A    between atoms: _624  and  _626
REMARK  233  A    between atoms: _626  and  _627
REMARK  234  A    between atoms: _626  and  _629
REMARK  235  A    between atoms: _629  and  _630
REMARK  236  A    between atoms: _630  and  _631
REMARK  237  A    between atoms: _635  and  _636
REMARK  238  A    between atoms: _641  and  _643
REMARK  239  A    between atoms: _643  and  _644
REMARK  240  A    between atoms: _643  and  _646
REMARK  241  A    between atoms: _646  and  _647
REMARK  242  A    between atoms: _647  and  _648
REMARK  243  A    between atoms: _648  and  _649
REMARK                            x       y       z     vdW  Elec       q    Type
REMARK                         _______ _______ _______ _____ _____    ______ ____
ROOT
ATOM      1  O   HOH     1      -9.236  -1.657  13.679  0.00  0.00    +0.000 OA
ENDROOT
TORSDOF 0
REMARK  Name = ../refined-set-2016/3k02/3k02_pocket.pdb
REMARK  243 active torsions:
REMARK  status: ('A' for Active; 'I' for Inactive)
REMARK    1  A    between atoms: _1  and  _3
REMARK    2  A    between atoms: _3  and  _4
REMARK    3  A    between atoms: _3  and  _6
REMARK    4  A    between atoms: _6  and  _7
REMARK    5  A    between atoms: _10  and  _12
REMARK    6  A    between atoms: _12  and  _13
REMARK    7  A    between atoms: _12  and  _15
REMARK    8  A    between atoms: _15  and  _16
REMARK    9  A    between atoms: _19  and  _21
REMARK   10  A    between atoms: _21  and  _22
REMARK   11  A    between atoms: _21  and  _24
REMARK   12  A    between atoms: _24  and  _25
REMARK   13  A    between atoms: _27  and  _29
REMARK   14  A    between atoms: _29  and  _30
REMARK   15  A    between atoms: _29  and  _32
REMARK   16  A    between atoms: _32  and  _33
REMARK   17  A    between atoms: _38  and  _40
REMARK   18  A    between atoms: _40  and  _41
REMARK   19  A    between atoms: _40  and  _43
REMARK   20  A    between atoms: _43  and  _44
REMARK   21  A    between atoms: _44  and  _45
REMARK   22  A    between atoms: _48  and  _50
REMARK   23  A    between atoms: _50  and  _51
REMARK   24  A    between atoms: _54  and  _56
REMARK   25  A    between atoms: _56  and  _57
REMARK   26  A    between atoms: _56  and  _59
REMARK   27  A    between atoms: _59  and  _60
REMARK   28  A    between atoms: _60  and  _61
REMARK   29  A    between atoms: _64  and  _66
REMARK   30  A    between atoms: _66  and  _67
REMARK   31  A    between atoms: _66  and  _69
REMARK   32  A    between atoms: _69  and  _70
REMARK   33  A    between atoms: _70  and  _71
REMARK   34  A    between atoms: _71  and  _72
REMARK   35  A    between atoms: _72  and  _73
REMARK   36  A    between atoms: _77  and  _79
REMARK   37  A    between atoms: _79  and  _80
REMARK   38  A    between atoms: _79  and  _82
REMARK   39  A    between atoms: _82  and  _83
REMARK   40  A    between atoms: _88  and  _89
REMARK   41  A    between atoms: _91  and  _93
REMARK   42  A    between atoms: _93  and  _94
REMARK   43  A    between atoms: _93  and  _96
REMARK   44  A    between atoms: _96  and  _97
REMARK   45  A    between atoms: _102  and  _104
REMARK   46  A    between atoms: _104  and  _105
REMARK   47  A    between atoms: _104  and  _107
REMARK   48  A    between atoms: _111  and  _112
REMARK   49  A    between atoms: _117  and  _119
REMARK   50  A    between atoms: _119  and  _120
REMARK   51  A    between atoms: _119  and  _122
REMARK   52  A    between atoms: _122  and  _123
REMARK   53  A    between atoms: _129  and  _131
REMARK   54  A    between atoms: _131  and  _132
REMARK   55  A    between atoms: _134  and  _136
REMARK   56  A    between atoms: _136  and  _137
REMARK   57  A    between atoms: _136  and  _139
REMARK   58  A    between atoms: _139  and  _140
REMARK   59  A    between atoms: _140  and  _141
REMARK   60  A    between atoms: _144  and  _146
REMARK   61  A    between atoms: _146  and  _147
REMARK   62  A    between atoms: _150  and  _152
REMARK   63  A    between atoms: _152  and  _153
REMARK   64  A    between atoms: _152  and  _155
REMARK   65  A    between atoms: _155  and  _156
REMARK   66  A    between atoms: _161  and  _163
REMARK   67  A    between atoms: _163  and  _164
REMARK   68  A    between atoms: _167  and  _169
REMARK   69  A    between atoms: _169  and  _170
REMARK   70  A    between atoms: _169  and  _172
REMARK   71  A    between atoms: _172  and  _173
REMARK   72  A    between atoms: _173  and  _174
REMARK   73  A    between atoms: _174  and  _175
REMARK   74  A    between atoms: _175  and  _176
REMARK   75  A    between atoms: _180  and  _182
REMARK   76  A    between atoms: _182  and  _183
REMARK   77  A    between atoms: _182  and  _185
REMARK   78  A    between atoms: _185  and  _186
REMARK   79  A    between atoms: _186  and  _187
REMARK   80  A    between atoms: _187  and  _188
REMARK   81  A    between atoms: _197  and  _199
REMARK   82  A    between atoms: _199  and  _200
REMARK   83  A    between atoms: _199  and  _202
REMARK   84  A    between atoms: _202  and  _203
REMARK   85  A    between atoms: _203  and  _204
REMARK   86  A    between atoms: _207  and  _209
REMARK   87  A    between atoms: _209  and  _210
REMARK   88  A    between atoms: _209  and  _212
REMARK   89  A    between atoms: _215  and  _217
REMARK   90  A    between atoms: _217  and  _218
REMARK   91  A    between atoms: _221  and  _223
REMARK   92  A    between atoms: _223  and  _224
REMARK   93  A    between atoms: _223  and  _226
REMARK   94  A    between atoms: _226  and  _227
REMARK   95  A    between atoms: _237  and  _239
REMARK   96  A    between atoms: _239  and  _240
REMARK   97  A    between atoms: _239  and  _242
REMARK   98  A    between atoms: _245  and  _247
REMARK   99  A    between atoms: _247  and  _248
REMARK  100  A    between atoms: _247  and  _250
REMARK  101  A    between atoms: _250  and  _251
REMARK  102  A    between atoms: _254  and  _256
REMARK  103  A    between atoms: _256  and  _257
REMARK  104  A    between atoms: _256  and  _259
REMARK  105  A    between atoms: _259  and  _260
REMARK  106  A    between atoms: _266  and  _268
REMARK  107  A    between atoms: _268  and  _269
REMARK  108  A    between atoms: _268  and  _271
REMARK  109  A    between atoms: _271  and  _272
REMARK  110  A    between atoms: _272  and  _273
REMARK  111  A    between atoms: _278  and  _280
REMARK  112  A    between atoms: _280  and  _281
REMARK  113  A    between atoms: _280  and  _283
REMARK  114  A    between atoms: _286  and  _288
REMARK  115  A    between atoms: _288  and  _289
REMARK  116  A    between atoms: _288  and  _291
REMARK  117  A    between atoms: _291  and  _292
REMARK  118  A    between atoms: _295  and  _297
REMARK  119  A    between atoms: _297  and  _298
REMARK  120  A    between atoms: _297  and  _300
REMARK  121  A    between atoms: _300  and  _301
REMARK  122  A    between atoms: _304  and  _306
REMARK  123  A    between atoms: _306  and  _307
REMARK  124  A    between atoms: _306  and  _309
REMARK  125  A    between atoms: _309  and  _310
REMARK  126  A    between atoms: _313  and  _315
REMARK  127  A    between atoms: _315  and  _316
REMARK  128  A    between atoms: _315  and  _318
REMARK  129  A    between atoms: _318  and  _319
REMARK  130  A    between atoms: _322  and  _324
REMARK  131  A    between atoms: _324  and  _325
REMARK  132  A    between atoms: _324  and  _327
REMARK  133  A    between atoms: _327  and  _328
REMARK  134  A    between atoms: _328  and  _329
REMARK  135  A    between atoms: _329  and  _330
REMARK  136  A    between atoms: _339  and  _341
REMARK  137  A    between atoms: _341  and  _342
REMARK  138  A    between atoms: _341  and  _344
REMARK  139  A    between atoms: _344  and  _345
REMARK  140  A    between atoms: _348  and  _350
REMARK  141  A    between atoms: _350  and  _351
REMARK  142  A    between atoms: _350  and  _353
REMARK  143  A    between atoms: _353  and  _354
REMARK  144  A    between atoms: _358  and  _359
REMARK  145  A    between atoms: _364  and  _366
REMARK  146  A    between atoms: _366  and  _367
REMARK  147  A    between atoms: _366  and  _369
REMARK  148  A    between atoms: _369  and  _370
REMARK  149  A    between atoms: _375  and  _376
REMARK  150  A    between atoms: _378  and  _380
REMARK  151  A    between atoms: _380  and  _381
REMARK  152  A    between atoms: _380  and  _383
REMARK  153  A    between atoms: _383  and  _384
REMARK  154  A    between atoms: _394  and  _396
REMARK  155  A    between atoms: _396  and  _397
REMARK  156  A    between atoms: _396  and  _399
REMARK  157  A    between atoms: _399  and  _400
REMARK  158  A    between atoms: _406  and  _408
REMARK  159  A    between atoms: _408  and  _409
REMARK  160  A    between atoms: _408  and  _411
REMARK  161  A    between atoms: _411  and  _412
REMARK  162  A    between atoms: _415  and  _417
REMARK  163  A    between atoms: _417  and  _418
REMARK  164  A    between atoms: _417  and  _420
REMARK  165  A    between atoms: _420  and  _421
REMARK  166  A    between atoms: _431  and  _433
REMARK  167  A    between atoms: _433  and  _434
REMARK  168  A    between atoms: _433  and  _436
REMARK  169  A    between atoms: _436  and  _437
REMARK  170  A    between atoms: _437  and  _438
REMARK  171  A    between atoms: _440  and  _442
REMARK  172  A    between atoms: _442  and  _443
REMARK  173  A    between atoms: _442  and  _445
REMARK  174  A    between atoms: _445  and  _446
REMARK  175  A    between atoms: _451  and  _453
REMARK  176  A    between atoms: _453  and  _454
REMARK  177  A    between atoms: _457  and  _458
REMARK  178  A    between atoms: _463  and  _465
REMARK  179  A    between atoms: _465  and  _466
REMARK  180  A    between atoms: _465  and  _468
REMARK  181  A    between atoms: _468  and  _469
REMARK  182  A    between atoms: _479  and  _481
REMARK  183  A    between atoms: _481  and  _482
REMARK  184  A    between atoms: _486  and  _487
REMARK  185  A    between atoms: _492  and  _494
REMARK  186  A    between atoms: _494  and  _495
REMARK  187  A    between atoms: _494  and  _497
REMARK  188  A    between atoms: _497  and  _498
REMARK  189  A    between atoms: _498  and  _499
REMARK  190  A    between atoms: _504  and  _506
REMARK  191  A    between atoms: _506  and  _507
REMARK  192  A    between atoms: _509  and  _511
REMARK  193  A    between atoms: _511  and  _512
REMARK  194  A    between atoms: _514  and  _516
REMARK  195  A    between atoms: _516  and  _517
REMARK  196  A    between atoms: _516  and  _519
REMARK  197  A    between atoms: _519  and  _520
REMARK  198  A    between atoms: _530  and  _532
REMARK  199  A    between atoms: _532  and  _533
REMARK  200  A    between atoms: _532  and  _535
REMARK  201  A    between atoms: _535  and  _536
REMARK  202  A    between atoms: _539  and  _541
REMARK  203  A    between atoms: _541  and  _542
REMARK  204  A    between atoms: _541  and  _544
REMARK  205  A    between atoms: _544  and  _545
REMARK  206  A    between atoms: _548  and  _550
REMARK  207  A    between atoms: _550  and  _551
REMARK  208  A    between atoms: _550  and  _553
REMARK  209  A    between atoms: _553  and  _554
REMARK  210  A    between atoms: _554  and  _555
REMARK  211  A    between atoms: _555  and  _556
REMARK  212  A    between atoms: _565  and  _567
REMARK  213  A    between atoms: _567  and  _568
REMARK  214  A    between atoms: _567  and  _570
REMARK  215  A    between atoms: _570  and  _571
REMARK  216  A    between atoms: _581  and  _583
REMARK  217  A    between atoms: _583  and  _584
REMARK  218  A    between atoms: _586  and  _588
REMARK  219  A    between atoms: _588  and  _589
REMARK  220  A    between atoms: _588  and  _591
REMARK  221  A    between atoms: _591  and  _592
REMARK  222  A    between atoms: _597  and  _599
REMARK  223  A    between atoms: _599  and  _600
REMARK  224  A    between atoms: _603  and  _605
REMARK  225  A    between atoms: _605  and  _606
REMARK  226  A    between atoms: _605  and  _608
REMARK  227  A    between atoms: _608  and  _609
REMARK  228  A    between atoms: _612  and  _614
REMARK  229  A    between atoms: _614  and  _615
REMARK  230  A    between atoms: _614  and  _617
REMARK  231  A    between atoms: _617  and  _618
REMARK  232  A    between atoms: _624  and  _626
REMARK  233  A    between atoms: _626  and  _627
REMARK  234  A    between atoms: _626  and  _629
REMARK  235  A    between atoms: _629  and  _630
REMARK  236  A    between atoms: _630  and  _631
REMARK  237  A    between atoms: _635  and  _636
REMARK  238  A    between atoms: _641  and  _643
REMARK  239  A    between atoms: _643  and  _644
REMARK  240  A    between atoms: _643  and  _646
REMARK  241  A    between atoms: _646  and  _647
REMARK  242  A    between atoms: _647  and  _648
REMARK  243  A    between atoms: _648  and  _649
REMARK                            x       y       z     vdW  Elec       q    Type
REMARK                         _______ _______ _______ _____ _____    ______ ____
ROOT
ATOM      1  O   HOH     1      -2.462  -2.655  24.511  0.00  0.00    +0.000 OA
ENDROOT
TORSDOF 0
REMARK  Name = ../refined-set-2016/3k02/3k02_pocket.pdb
REMARK  243 active torsions:
REMARK  status: ('A' for Active; 'I' for Inactive)
REMARK    1  A    between atoms: _1  and  _3
REMARK    2  A    between atoms: _3  and  _4
REMARK    3  A    between atoms: _3  and  _6
REMARK    4  A    between atoms: _6  and  _7
REMARK    5  A    between atoms: _10  and  _12
REMARK    6  A    between atoms: _12  and  _13
REMARK    7  A    between atoms: _12  and  _15
REMARK    8  A    between atoms: _15  and  _16
REMARK    9  A    between atoms: _19  and  _21
REMARK   10  A    between atoms: _21  and  _22
REMARK   11  A    between atoms: _21  and  _24
REMARK   12  A    between atoms: _24  and  _25
REMARK   13  A    between atoms: _27  and  _29
REMARK   14  A    between atoms: _29  and  _30
REMARK   15  A    between atoms: _29  and  _32
REMARK   16  A    between atoms: _32  and  _33
REMARK   17  A    between atoms: _38  and  _40
REMARK   18  A    between atoms: _40  and  _41
REMARK   19  A    between atoms: _40  and  _43
REMARK   20  A    between atoms: _43  and  _44
REMARK   21  A    between atoms: _44  and  _45
REMARK   22  A    between atoms: _48  and  _50
REMARK   23  A    between atoms: _50  and  _51
REMARK   24  A    between atoms: _54  and  _56
REMARK   25  A    between atoms: _56  and  _57
REMARK   26  A    between atoms: _56  and  _59
REMARK   27  A    between atoms: _59  and  _60
REMARK   28  A    between atoms: _60  and  _61
REMARK   29  A    between atoms: _64  and  _66
REMARK   30  A    between atoms: _66  and  _67
REMARK   31  A    between atoms: _66  and  _69
REMARK   32  A    between atoms: _69  and  _70
REMARK   33  A    between atoms: _70  and  _71
REMARK   34  A    between atoms: _71  and  _72
REMARK   35  A    between atoms: _72  and  _73
REMARK   36  A    between atoms: _77  and  _79
REMARK   37  A    between atoms: _79  and  _80
REMARK   38  A    between atoms: _79  and  _82
REMARK   39  A    between atoms: _82  and  _83
REMARK   40  A    between atoms: _88  and  _89
REMARK   41  A    between atoms: _91  and  _93
REMARK   42  A    between atoms: _93  and  _94
REMARK   43  A    between atoms: _93  and  _96
REMARK   44  A    between atoms: _96  and  _97
REMARK   45  A    between atoms: _102  and  _104
REMARK   46  A    between atoms: _104  and  _105
REMARK   47  A    between atoms: _104  and  _107
REMARK   48  A    between atoms: _111  and  _112
REMARK   49  A    between atoms: _117  and  _119
REMARK   50  A    between atoms: _119  and  _120
REMARK   51  A    between atoms: _119  and  _122
REMARK   52  A    between atoms: _122  and  _123
REMARK   53  A    between atoms: _129  and  _131
REMARK   54  A    between atoms: _131  and  _132
REMARK   55  A    between atoms: _134  and  _136
REMARK   56  A    between atoms: _136  and  _137
REMARK   57  A    between atoms: _136  and  _139
REMARK   58  A    between atoms: _139  and  _140
REMARK   59  A    between atoms: _140  and  _141
REMARK   60  A    between atoms: _144  and  _146
REMARK   61  A    between atoms: _146  and  _147
REMARK   62  A    between atoms: _150  and  _152
REMARK   63  A    between atoms: _152  and  _153
REMARK   64  A    between atoms: _152  and  _155
REMARK   65  A    between atoms: _155  and  _156
REMARK   66  A    between atoms: _161  and  _163
REMARK   67  A    between atoms: _163  and  _164
REMARK   68  A    between atoms: _167  and  _169
REMARK   69  A    between atoms: _169  and  _170
REMARK   70  A    between atoms: _169  and  _172
REMARK   71  A    between atoms: _172  and  _173
REMARK   72  A    between atoms: _173  and  _174
REMARK   73  A    between atoms: _174  and  _175
REMARK   74  A    between atoms: _175  and  _176
REMARK   75  A    between atoms: _180  and  _182
REMARK   76  A    between atoms: _182  and  _183
REMARK   77  A    between atoms: _182  and  _185
REMARK   78  A    between atoms: _185  and  _186
REMARK   79  A    between atoms: _186  and  _187
REMARK   80  A    between atoms: _187  and  _188
REMARK   81  A    between atoms: _197  and  _199
REMARK   82  A    between atoms: _199  and  _200
REMARK   83  A    between atoms: _199  and  _202
REMARK   84  A    between atoms: _202  and  _203
REMARK   85  A    between atoms: _203  and  _204
REMARK   86  A    between atoms: _207  and  _209
REMARK   87  A    between atoms: _209  and  _210
REMARK   88  A    between atoms: _209  and  _212
REMARK   89  A    between atoms: _215  and  _217
REMARK   90  A    between atoms: _217  and  _218
REMARK   91  A    between atoms: _221  and  _223
REMARK   92  A    between atoms: _223  and  _224
REMARK   93  A    between atoms: _223  and  _226
REMARK   94  A    between atoms: _226  and  _227
REMARK   95  A    between atoms: _237  and  _239
REMARK   96  A    between atoms: _239  and  _240
REMARK   97  A    between atoms: _239  and  _242
REMARK   98  A    between atoms: _245  and  _247
REMARK   99  A    between atoms: _247  and  _248
REMARK  100  A    between atoms: _247  and  _250
REMARK  101  A    between atoms: _250  and  _251
REMARK  102  A    between atoms: _254  and  _256
REMARK  103  A    between atoms: _256  and  _257
REMARK  104  A    between atoms: _256  and  _259
REMARK  105  A    between atoms: _259  and  _260
REMARK  106  A    between atoms: _266  and  _268
REMARK  107  A    between atoms: _268  and  _269
REMARK  108  A    between atoms: _268  and  _271
REMARK  109  A    between atoms: _271  and  _272
REMARK  110  A    between atoms: _272  and  _273
REMARK  111  A    between atoms: _278  and  _280
REMARK  112  A    between atoms: _280  and  _281
REMARK  113  A    between atoms: _280  and  _283
REMARK  114  A    between atoms: _286  and  _288
REMARK  115  A    between atoms: _288  and  _289
REMARK  116  A    between atoms: _288  and  _291
REMARK  117  A    between atoms: _291  and  _292
REMARK  118  A    between atoms: _295  and  _297
REMARK  119  A    between atoms: _297  and  _298
REMARK  120  A    between atoms: _297  and  _300
REMARK  121  A    between atoms: _300  and  _301
REMARK  122  A    between atoms: _304  and  _306
REMARK  123  A    between atoms: _306  and  _307
REMARK  124  A    between atoms: _306  and  _309
REMARK  125  A    between atoms: _309  and  _310
REMARK  126  A    between atoms: _313  and  _315
REMARK  127  A    between atoms: _315  and  _316
REMARK  128  A    between atoms: _315  and  _318
REMARK  129  A    between atoms: _318  and  _319
REMARK  130  A    between atoms: _322  and  _324
REMARK  131  A    between atoms: _324  and  _325
REMARK  132  A    between atoms: _324  and  _327
REMARK  133  A    between atoms: _327  and  _328
REMARK  134  A    between atoms: _328  and  _329
REMARK  135  A    between atoms: _329  and  _330
REMARK  136  A    between atoms: _339  and  _341
REMARK  137  A    between atoms: _341  and  _342
REMARK  138  A    between atoms: _341  and  _344
REMARK  139  A    between atoms: _344  and  _345
REMARK  140  A    between atoms: _348  and  _350
REMARK  141  A    between atoms: _350  and  _351
REMARK  142  A    between atoms: _350  and  _353
REMARK  143  A    between atoms: _353  and  _354
REMARK  144  A    between atoms: _358  and  _359
REMARK  145  A    between atoms: _364  and  _366
REMARK  146  A    between atoms: _366  and  _367
REMARK  147  A    between atoms: _366  and  _369
REMARK  148  A    between atoms: _369  and  _370
REMARK  149  A    between atoms: _375  and  _376
REMARK  150  A    between atoms: _378  and  _380
REMARK  151  A    between atoms: _380  and  _381
REMARK  152  A    between atoms: _380  and  _383
REMARK  153  A    between atoms: _383  and  _384
REMARK  154  A    between atoms: _394  and  _396
REMARK  155  A    between atoms: _396  and  _397
REMARK  156  A    between atoms: _396  and  _399
REMARK  157  A    between atoms: _399  and  _400
REMARK  158  A    between atoms: _406  and  _408
REMARK  159  A    between atoms: _408  and  _409
REMARK  160  A    between atoms: _408  and  _411
REMARK  161  A    between atoms: _411  and  _412
REMARK  162  A    between atoms: _415  and  _417
REMARK  163  A    between atoms: _417  and  _418
REMARK  164  A    between atoms: _417  and  _420
REMARK  165  A    between atoms: _420  and  _421
REMARK  166  A    between atoms: _431  and  _433
REMARK  167  A    between atoms: _433  and  _434
REMARK  168  A    between atoms: _433  and  _436
REMARK  169  A    between atoms: _436  and  _437
REMARK  170  A    between atoms: _437  and  _438
REMARK  171  A    between atoms: _440  and  _442
REMARK  172  A    between atoms: _442  and  _443
REMARK  173  A    between atoms: _442  and  _445
REMARK  174  A    between atoms: _445  and  _446
REMARK  175  A    between atoms: _451  and  _453
REMARK  176  A    between atoms: _453  and  _454
REMARK  177  A    between atoms: _457  and  _458
REMARK  178  A    between atoms: _463  and  _465
REMARK  179  A    between atoms: _465  and  _466
REMARK  180  A    between atoms: _465  and  _468
REMARK  181  A    between atoms: _468  and  _469
REMARK  182  A    between atoms: _479  and  _481
REMARK  183  A    between atoms: _481  and  _482
REMARK  184  A    between atoms: _486  and  _487
REMARK  185  A    between atoms: _492  and  _494
REMARK  186  A    between atoms: _494  and  _495
REMARK  187  A    between atoms: _494  and  _497
REMARK  188  A    between atoms: _497  and  _498
REMARK  189  A    between atoms: _498  and  _499
REMARK  190  A    between atoms: _504  and  _506
REMARK  191  A    between atoms: _506  and  _507
REMARK  192  A    between atoms: _509  and  _511
REMARK  193  A    between atoms: _511  and  _512
REMARK  194  A    between atoms: _514  and  _516
REMARK  195  A    between atoms: _516  and  _517
REMARK  196  A    between atoms: _516  and  _519
REMARK  197  A    between atoms: _519  and  _520
REMARK  198  A    between atoms: _530  and  _532
REMARK  199  A    between atoms: _532  and  _533
REMARK  200  A    between atoms: _532  and  _535
REMARK  201  A    between atoms: _535  and  _536
REMARK  202  A    between atoms: _539  and  _541
REMARK  203  A    between atoms: _541  and  _542
REMARK  204  A    between atoms: _541  and  _544
REMARK  205  A    between atoms: _544  and  _545
REMARK  206  A    between atoms: _548  and  _550
REMARK  207  A    between atoms: _550  and  _551
REMARK  208  A    between atoms: _550  and  _553
REMARK  209  A    between atoms: _553  and  _554
REMARK  210  A    between atoms: _554  and  _555
REMARK  211  A    between atoms: _555  and  _556
REMARK  212  A    between atoms: _565  and  _567
REMARK  213  A    between atoms: _567  and  _568
REMARK  214  A    between atoms: _567  and  _570
REMARK  215  A    between atoms: _570  and  _571
REMARK  216  A    between atoms: _581  and  _583
REMARK  217  A    between atoms: _583  and  _584
REMARK  218  A    between atoms: _586  and  _588
REMARK  219  A    between atoms: _588  and  _589
REMARK  220  A    between atoms: _588  and  _591
REMARK  221  A    between atoms: _591  and  _592
REMARK  222  A    between atoms: _597  and  _599
REMARK  223  A    between atoms: _599  and  _600
REMARK  224  A    between atoms: _603  and  _605
REMARK  225  A    between atoms: _605  and  _606
REMARK  226  A    between atoms: _605  and  _608
REMARK  227  A    between atoms: _608  and  _609
REMARK  228  A    between atoms: _612  and  _614
REMARK  229  A    between atoms: _614  and  _615
REMARK  230  A    between atoms: _614  and  _617
REMARK  231  A    between atoms: _617  and  _618
REMARK  232  A    between atoms: _624  and  _626
REMARK  233  A    between atoms: _626  and  _627
REMARK  234  A    between atoms: _626  and  _629
REMARK  235  A    between atoms: _629  and  _630
REMARK  236  A    between atoms: _630  and  _631
REMARK  237  A    between atoms: _635  and  _636
REMARK  238  A    between atoms: _641  and  _643
REMARK  239  A    between atoms: _643  and  _644
REMARK  240  A    between atoms: _643  and  _646
REMARK  241  A    between atoms: _646  and  _647
REMARK  242  A    between atoms: _647  and  _648
REMARK  243  A    between atoms: _648  and  _649
REMARK                            x       y       z     vdW  Elec       q    Type
REMARK                         _______ _______ _______ _____ _____    ______ ____
ROOT
ATOM      1  O   HOH     1     -13.508  -9.381  20.510  0.00  0.00    +0.000 OA
ENDROOT
TORSDOF 0
REMARK  Name = ../refined-set-2016/3k02/3k02_pocket.pdb
REMARK  243 active torsions:
REMARK  status: ('A' for Active; 'I' for Inactive)
REMARK    1  A    between atoms: _1  and  _3
REMARK    2  A    between atoms: _3  and  _4
REMARK    3  A    between atoms: _3  and  _6
REMARK    4  A    between atoms: _6  and  _7
REMARK    5  A    between atoms: _10  and  _12
REMARK    6  A    between atoms: _12  and  _13
REMARK    7  A    between atoms: _12  and  _15
REMARK    8  A    between atoms: _15  and  _16
REMARK    9  A    between atoms: _19  and  _21
REMARK   10  A    between atoms: _21  and  _22
REMARK   11  A    between atoms: _21  and  _24
REMARK   12  A    between atoms: _24  and  _25
REMARK   13  A    between atoms: _27  and  _29
REMARK   14  A    between atoms: _29  and  _30
REMARK   15  A    between atoms: _29  and  _32
REMARK   16  A    between atoms: _32  and  _33
REMARK   17  A    between atoms: _38  and  _40
REMARK   18  A    between atoms: _40  and  _41
REMARK   19  A    between atoms: _40  and  _43
REMARK   20  A    between atoms: _43  and  _44
REMARK   21  A    between atoms: _44  and  _45
REMARK   22  A    between atoms: _48  and  _50
REMARK   23  A    between atoms: _50  and  _51
REMARK   24  A    between atoms: _54  and  _56
REMARK   25  A    between atoms: _56  and  _57
REMARK   26  A    between atoms: _56  and  _59
REMARK   27  A    between atoms: _59  and  _60
REMARK   28  A    between atoms: _60  and  _61
REMARK   29  A    between atoms: _64  and  _66
REMARK   30  A    between atoms: _66  and  _67
REMARK   31  A    between atoms: _66  and  _69
REMARK   32  A    between atoms: _69  and  _70
REMARK   33  A    between atoms: _70  and  _71
REMARK   34  A    between atoms: _71  and  _72
REMARK   35  A    between atoms: _72  and  _73
REMARK   36  A    between atoms: _77  and  _79
REMARK   37  A    between atoms: _79  and  _80
REMARK   38  A    between atoms: _79  and  _82
REMARK   39  A    between atoms: _82  and  _83
REMARK   40  A    between atoms: _88  and  _89
REMARK   41  A    between atoms: _91  and  _93
REMARK   42  A    between atoms: _93  and  _94
REMARK   43  A    between atoms: _93  and  _96
REMARK   44  A    between atoms: _96  and  _97
REMARK   45  A    between atoms: _102  and  _104
REMARK   46  A    between atoms: _104  and  _105
REMARK   47  A    between atoms: _104  and  _107
REMARK   48  A    between atoms: _111  and  _112
REMARK   49  A    between atoms: _117  and  _119
REMARK   50  A    between atoms: _119  and  _120
REMARK   51  A    between atoms: _119  and  _122
REMARK   52  A    between atoms: _122  and  _123
REMARK   53  A    between atoms: _129  and  _131
REMARK   54  A    between atoms: _131  and  _132
REMARK   55  A    between atoms: _134  and  _136
REMARK   56  A    between atoms: _136  and  _137
REMARK   57  A    between atoms: _136  and  _139
REMARK   58  A    between atoms: _139  and  _140
REMARK   59  A    between atoms: _140  and  _141
REMARK   60  A    between atoms: _144  and  _146
REMARK   61  A    between atoms: _146  and  _147
REMARK   62  A    between atoms: _150  and  _152
REMARK   63  A    between atoms: _152  and  _153
REMARK   64  A    between atoms: _152  and  _155
REMARK   65  A    between atoms: _155  and  _156
REMARK   66  A    between atoms: _161  and  _163
REMARK   67  A    between atoms: _163  and  _164
REMARK   68  A    between atoms: _167  and  _169
REMARK   69  A    between atoms: _169  and  _170
REMARK   70  A    between atoms: _169  and  _172
REMARK   71  A    between atoms: _172  and  _173
REMARK   72  A    between atoms: _173  and  _174
REMARK   73  A    between atoms: _174  and  _175
REMARK   74  A    between atoms: _175  and  _176
REMARK   75  A    between atoms: _180  and  _182
REMARK   76  A    between atoms: _182  and  _183
REMARK   77  A    between atoms: _182  and  _185
REMARK   78  A    between atoms: _185  and  _186
REMARK   79  A    between atoms: _186  and  _187
REMARK   80  A    between atoms: _187  and  _188
REMARK   81  A    between atoms: _197  and  _199
REMARK   82  A    between atoms: _199  and  _200
REMARK   83  A    between atoms: _199  and  _202
REMARK   84  A    between atoms: _202  and  _203
REMARK   85  A    between atoms: _203  and  _204
REMARK   86  A    between atoms: _207  and  _209
REMARK   87  A    between atoms: _209  and  _210
REMARK   88  A    between atoms: _209  and  _212
REMARK   89  A    between atoms: _215  and  _217
REMARK   90  A    between atoms: _217  and  _218
REMARK   91  A    between atoms: _221  and  _223
REMARK   92  A    between atoms: _223  and  _224
REMARK   93  A    between atoms: _223  and  _226
REMARK   94  A    between atoms: _226  and  _227
REMARK   95  A    between atoms: _237  and  _239
REMARK   96  A    between atoms: _239  and  _240
REMARK   97  A    between atoms: _239  and  _242
REMARK   98  A    between atoms: _245  and  _247
REMARK   99  A    between atoms: _247  and  _248
REMARK  100  A    between atoms: _247  and  _250
REMARK  101  A    between atoms: _250  and  _251
REMARK  102  A    between atoms: _254  and  _256
REMARK  103  A    between atoms: _256  and  _257
REMARK  104  A    between atoms: _256  and  _259
REMARK  105  A    between atoms: _259  and  _260
REMARK  106  A    between atoms: _266  and  _268
REMARK  107  A    between atoms: _268  and  _269
REMARK  108  A    between atoms: _268  and  _271
REMARK  109  A    between atoms: _271  and  _272
REMARK  110  A    between atoms: _272  and  _273
REMARK  111  A    between atoms: _278  and  _280
REMARK  112  A    between atoms: _280  and  _281
REMARK  113  A    between atoms: _280  and  _283
REMARK  114  A    between atoms: _286  and  _288
REMARK  115  A    between atoms: _288  and  _289
REMARK  116  A    between atoms: _288  and  _291
REMARK  117  A    between atoms: _291  and  _292
REMARK  118  A    between atoms: _295  and  _297
REMARK  119  A    between atoms: _297  and  _298
REMARK  120  A    between atoms: _297  and  _300
REMARK  121  A    between atoms: _300  and  _301
REMARK  122  A    between atoms: _304  and  _306
REMARK  123  A    between atoms: _306  and  _307
REMARK  124  A    between atoms: _306  and  _309
REMARK  125  A    between atoms: _309  and  _310
REMARK  126  A    between atoms: _313  and  _315
REMARK  127  A    between atoms: _315  and  _316
REMARK  128  A    between atoms: _315  and  _318
REMARK  129  A    between atoms: _318  and  _319
REMARK  130  A    between atoms: _322  and  _324
REMARK  131  A    between atoms: _324  and  _325
REMARK  132  A    between atoms: _324  and  _327
REMARK  133  A    between atoms: _327  and  _328
REMARK  134  A    between atoms: _328  and  _329
REMARK  135  A    between atoms: _329  and  _330
REMARK  136  A    between atoms: _339  and  _341
REMARK  137  A    between atoms: _341  and  _342
REMARK  138  A    between atoms: _341  and  _344
REMARK  139  A    between atoms: _344  and  _345
REMARK  140  A    between atoms: _348  and  _350
REMARK  141  A    between atoms: _350  and  _351
REMARK  142  A    between atoms: _350  and  _353
REMARK  143  A    between atoms: _353  and  _354
REMARK  144  A    between atoms: _358  and  _359
REMARK  145  A    between atoms: _364  and  _366
REMARK  146  A    between atoms: _366  and  _367
REMARK  147  A    between atoms: _366  and  _369
REMARK  148  A    between atoms: _369  and  _370
REMARK  149  A    between atoms: _375  and  _376
REMARK  150  A    between atoms: _378  and  _380
REMARK  151  A    between atoms: _380  and  _381
REMARK  152  A    between atoms: _380  and  _383
REMARK  153  A    between atoms: _383  and  _384
REMARK  154  A    between atoms: _394  and  _396
REMARK  155  A    between atoms: _396  and  _397
REMARK  156  A    between atoms: _396  and  _399
REMARK  157  A    between atoms: _399  and  _400
REMARK  158  A    between atoms: _406  and  _408
REMARK  159  A    between atoms: _408  and  _409
REMARK  160  A    between atoms: _408  and  _411
REMARK  161  A    between atoms: _411  and  _412
REMARK  162  A    between atoms: _415  and  _417
REMARK  163  A    between atoms: _417  and  _418
REMARK  164  A    between atoms: _417  and  _420
REMARK  165  A    between atoms: _420  and  _421
REMARK  166  A    between atoms: _431  and  _433
REMARK  167  A    between atoms: _433  and  _434
REMARK  168  A    between atoms: _433  and  _436
REMARK  169  A    between atoms: _436  and  _437
REMARK  170  A    between atoms: _437  and  _438
REMARK  171  A    between atoms: _440  and  _442
REMARK  172  A    between atoms: _442  and  _443
REMARK  173  A    between atoms: _442  and  _445
REMARK  174  A    between atoms: _445  and  _446
REMARK  175  A    between atoms: _451  and  _453
REMARK  176  A    between atoms: _453  and  _454
REMARK  177  A    between atoms: _457  and  _458
REMARK  178  A    between atoms: _463  and  _465
REMARK  179  A    between atoms: _465  and  _466
REMARK  180  A    between atoms: _465  and  _468
REMARK  181  A    between atoms: _468  and  _469
REMARK  182  A    between atoms: _479  and  _481
REMARK  183  A    between atoms: _481  and  _482
REMARK  184  A    between atoms: _486  and  _487
REMARK  185  A    between atoms: _492  and  _494
REMARK  186  A    between atoms: _494  and  _495
REMARK  187  A    between atoms: _494  and  _497
REMARK  188  A    between atoms: _497  and  _498
REMARK  189  A    between atoms: _498  and  _499
REMARK  190  A    between atoms: _504  and  _506
REMARK  191  A    between atoms: _506  and  _507
REMARK  192  A    between atoms: _509  and  _511
REMARK  193  A    between atoms: _511  and  _512
REMARK  194  A    between atoms: _514  and  _516
REMARK  195  A    between atoms: _516  and  _517
REMARK  196  A    between atoms: _516  and  _519
REMARK  197  A    between atoms: _519  and  _520
REMARK  198  A    between atoms: _530  and  _532
REMARK  199  A    between atoms: _532  and  _533
REMARK  200  A    between atoms: _532  and  _535
REMARK  201  A    between atoms: _535  and  _536
REMARK  202  A    between atoms: _539  and  _541
REMARK  203  A    between atoms: _541  and  _542
REMARK  204  A    between atoms: _541  and  _544
REMARK  205  A    between atoms: _544  and  _545
REMARK  206  A    between atoms: _548  and  _550
REMARK  207  A    between atoms: _550  and  _551
REMARK  208  A    between atoms: _550  and  _553
REMARK  209  A    between atoms: _553  and  _554
REMARK  210  A    between atoms: _554  and  _555
REMARK  211  A    between atoms: _555  and  _556
REMARK  212  A    between atoms: _565  and  _567
REMARK  213  A    between atoms: _567  and  _568
REMARK  214  A    between atoms: _567  and  _570
REMARK  215  A    between atoms: _570  and  _571
REMARK  216  A    between atoms: _581  and  _583
REMARK  217  A    between atoms: _583  and  _584
REMARK  218  A    between atoms: _586  and  _588
REMARK  219  A    between atoms: _588  and  _589
REMARK  220  A    between atoms: _588  and  _591
REMARK  221  A    between atoms: _591  and  _592
REMARK  222  A    between atoms: _597  and  _599
REMARK  223  A    between atoms: _599  and  _600
REMARK  224  A    between atoms: _603  and  _605
REMARK  225  A    between atoms: _605  and  _606
REMARK  226  A    between atoms: _605  and  _608
REMARK  227  A    between atoms: _608  and  _609
REMARK  228  A    between atoms: _612  and  _614
REMARK  229  A    between atoms: _614  and  _615
REMARK  230  A    between atoms: _614  and  _617
REMARK  231  A    between atoms: _617  and  _618
REMARK  232  A    between atoms: _624  and  _626
REMARK  233  A    between atoms: _626  and  _627
REMARK  234  A    between atoms: _626  and  _629
REMARK  235  A    between atoms: _629  and  _630
REMARK  236  A    between atoms: _630  and  _631
REMARK  237  A    between atoms: _635  and  _636
REMARK  238  A    between atoms: _641  and  _643
REMARK  239  A    between atoms: _643  and  _644
REMARK  240  A    between atoms: _643  and  _646
REMARK  241  A    between atoms: _646  and  _647
REMARK  242  A    between atoms: _647  and  _648
REMARK  243  A    between atoms: _648  and  _649
REMARK                            x       y       z     vdW  Elec       q    Type
REMARK                         _______ _______ _______ _____ _____    ______ ____
ROOT
ATOM      1  O   HOH     1     -11.340  -3.545  13.691  0.00  0.00    +0.000 OA
ENDROOT
TORSDOF 0
REMARK  Name = ../refined-set-2016/3k02/3k02_pocket.pdb
REMARK  243 active torsions:
REMARK  status: ('A' for Active; 'I' for Inactive)
REMARK    1  A    between atoms: _1  and  _3
REMARK    2  A    between atoms: _3  and  _4
REMARK    3  A    between atoms: _3  and  _6
REMARK    4  A    between atoms: _6  and  _7
REMARK    5  A    between atoms: _10  and  _12
REMARK    6  A    between atoms: _12  and  _13
REMARK    7  A    between atoms: _12  and  _15
REMARK    8  A    between atoms: _15  and  _16
REMARK    9  A    between atoms: _19  and  _21
REMARK   10  A    between atoms: _21  and  _22
REMARK   11  A    between atoms: _21  and  _24
REMARK   12  A    between atoms: _24  and  _25
REMARK   13  A    between atoms: _27  and  _29
REMARK   14  A    between atoms: _29  and  _30
REMARK   15  A    between atoms: _29  and  _32
REMARK   16  A    between atoms: _32  and  _33
REMARK   17  A    between atoms: _38  and  _40
REMARK   18  A    between atoms: _40  and  _41
REMARK   19  A    between atoms: _40  and  _43
REMARK   20  A    between atoms: _43  and  _44
REMARK   21  A    between atoms: _44  and  _45
REMARK   22  A    between atoms: _48  and  _50
REMARK   23  A    between atoms: _50  and  _51
REMARK   24  A    between atoms: _54  and  _56
REMARK   25  A    between atoms: _56  and  _57
REMARK   26  A    between atoms: _56  and  _59
REMARK   27  A    between atoms: _59  and  _60
REMARK   28  A    between atoms: _60  and  _61
REMARK   29  A    between atoms: _64  and  _66
REMARK   30  A    between atoms: _66  and  _67
REMARK   31  A    between atoms: _66  and  _69
REMARK   32  A    between atoms: _69  and  _70
REMARK   33  A    between atoms: _70  and  _71
REMARK   34  A    between atoms: _71  and  _72
REMARK   35  A    between atoms: _72  and  _73
REMARK   36  A    between atoms: _77  and  _79
REMARK   37  A    between atoms: _79  and  _80
REMARK   38  A    between atoms: _79  and  _82
REMARK   39  A    between atoms: _82  and  _83
REMARK   40  A    between atoms: _88  and  _89
REMARK   41  A    between atoms: _91  and  _93
REMARK   42  A    between atoms: _93  and  _94
REMARK   43  A    between atoms: _93  and  _96
REMARK   44  A    between atoms: _96  and  _97
REMARK   45  A    between atoms: _102  and  _104
REMARK   46  A    between atoms: _104  and  _105
REMARK   47  A    between atoms: _104  and  _107
REMARK   48  A    between atoms: _111  and  _112
REMARK   49  A    between atoms: _117  and  _119
REMARK   50  A    between atoms: _119  and  _120
REMARK   51  A    between atoms: _119  and  _122
REMARK   52  A    between atoms: _122  and  _123
REMARK   53  A    between atoms: _129  and  _131
REMARK   54  A    between atoms: _131  and  _132
REMARK   55  A    between atoms: _134  and  _136
REMARK   56  A    between atoms: _136  and  _137
REMARK   57  A    between atoms: _136  and  _139
REMARK   58  A    between atoms: _139  and  _140
REMARK   59  A    between atoms: _140  and  _141
REMARK   60  A    between atoms: _144  and  _146
REMARK   61  A    between atoms: _146  and  _147
REMARK   62  A    between atoms: _150  and  _152
REMARK   63  A    between atoms: _152  and  _153
REMARK   64  A    between atoms: _152  and  _155
REMARK   65  A    between atoms: _155  and  _156
REMARK   66  A    between atoms: _161  and  _163
REMARK   67  A    between atoms: _163  and  _164
REMARK   68  A    between atoms: _167  and  _169
REMARK   69  A    between atoms: _169  and  _170
REMARK   70  A    between atoms: _169  and  _172
REMARK   71  A    between atoms: _172  and  _173
REMARK   72  A    between atoms: _173  and  _174
REMARK   73  A    between atoms: _174  and  _175
REMARK   74  A    between atoms: _175  and  _176
REMARK   75  A    between atoms: _180  and  _182
REMARK   76  A    between atoms: _182  and  _183
REMARK   77  A    between atoms: _182  and  _185
REMARK   78  A    between atoms: _185  and  _186
REMARK   79  A    between atoms: _186  and  _187
REMARK   80  A    between atoms: _187  and  _188
REMARK   81  A    between atoms: _197  and  _199
REMARK   82  A    between atoms: _199  and  _200
REMARK   83  A    between atoms: _199  and  _202
REMARK   84  A    between atoms: _202  and  _203
REMARK   85  A    between atoms: _203  and  _204
REMARK   86  A    between atoms: _207  and  _209
REMARK   87  A    between atoms: _209  and  _210
REMARK   88  A    between atoms: _209  and  _212
REMARK   89  A    between atoms: _215  and  _217
REMARK   90  A    between atoms: _217  and  _218
REMARK   91  A    between atoms: _221  and  _223
REMARK   92  A    between atoms: _223  and  _224
REMARK   93  A    between atoms: _223  and  _226
REMARK   94  A    between atoms: _226  and  _227
REMARK   95  A    between atoms: _237  and  _239
REMARK   96  A    between atoms: _239  and  _240
REMARK   97  A    between atoms: _239  and  _242
REMARK   98  A    between atoms: _245  and  _247
REMARK   99  A    between atoms: _247  and  _248
REMARK  100  A    between atoms: _247  and  _250
REMARK  101  A    between atoms: _250  and  _251
REMARK  102  A    between atoms: _254  and  _256
REMARK  103  A    between atoms: _256  and  _257
REMARK  104  A    between atoms: _256  and  _259
REMARK  105  A    between atoms: _259  and  _260
REMARK  106  A    between atoms: _266  and  _268
REMARK  107  A    between atoms: _268  and  _269
REMARK  108  A    between atoms: _268  and  _271
REMARK  109  A    between atoms: _271  and  _272
REMARK  110  A    between atoms: _272  and  _273
REMARK  111  A    between atoms: _278  and  _280
REMARK  112  A    between atoms: _280  and  _281
REMARK  113  A    between atoms: _280  and  _283
REMARK  114  A    between atoms: _286  and  _288
REMARK  115  A    between atoms: _288  and  _289
REMARK  116  A    between atoms: _288  and  _291
REMARK  117  A    between atoms: _291  and  _292
REMARK  118  A    between atoms: _295  and  _297
REMARK  119  A    between atoms: _297  and  _298
REMARK  120  A    between atoms: _297  and  _300
REMARK  121  A    between atoms: _300  and  _301
REMARK  122  A    between atoms: _304  and  _306
REMARK  123  A    between atoms: _306  and  _307
REMARK  124  A    between atoms: _306  and  _309
REMARK  125  A    between atoms: _309  and  _310
REMARK  126  A    between atoms: _313  and  _315
REMARK  127  A    between atoms: _315  and  _316
REMARK  128  A    between atoms: _315  and  _318
REMARK  129  A    between atoms: _318  and  _319
REMARK  130  A    between atoms: _322  and  _324
REMARK  131  A    between atoms: _324  and  _325
REMARK  132  A    between atoms: _324  and  _327
REMARK  133  A    between atoms: _327  and  _328
REMARK  134  A    between atoms: _328  and  _329
REMARK  135  A    between atoms: _329  and  _330
REMARK  136  A    between atoms: _339  and  _341
REMARK  137  A    between atoms: _341  and  _342
REMARK  138  A    between atoms: _341  and  _344
REMARK  139  A    between atoms: _344  and  _345
REMARK  140  A    between atoms: _348  and  _350
REMARK  141  A    between atoms: _350  and  _351
REMARK  142  A    between atoms: _350  and  _353
REMARK  143  A    between atoms: _353  and  _354
REMARK  144  A    between atoms: _358  and  _359
REMARK  145  A    between atoms: _364  and  _366
REMARK  146  A    between atoms: _366  and  _367
REMARK  147  A    between atoms: _366  and  _369
REMARK  148  A    between atoms: _369  and  _370
REMARK  149  A    between atoms: _375  and  _376
REMARK  150  A    between atoms: _378  and  _380
REMARK  151  A    between atoms: _380  and  _381
REMARK  152  A    between atoms: _380  and  _383
REMARK  153  A    between atoms: _383  and  _384
REMARK  154  A    between atoms: _394  and  _396
REMARK  155  A    between atoms: _396  and  _397
REMARK  156  A    between atoms: _396  and  _399
REMARK  157  A    between atoms: _399  and  _400
REMARK  158  A    between atoms: _406  and  _408
REMARK  159  A    between atoms: _408  and  _409
REMARK  160  A    between atoms: _408  and  _411
REMARK  161  A    between atoms: _411  and  _412
REMARK  162  A    between atoms: _415  and  _417
REMARK  163  A    between atoms: _417  and  _418
REMARK  164  A    between atoms: _417  and  _420
REMARK  165  A    between atoms: _420  and  _421
REMARK  166  A    between atoms: _431  and  _433
REMARK  167  A    between atoms: _433  and  _434
REMARK  168  A    between atoms: _433  and  _436
REMARK  169  A    between atoms: _436  and  _437
REMARK  170  A    between atoms: _437  and  _438
REMARK  171  A    between atoms: _440  and  _442
REMARK  172  A    between atoms: _442  and  _443
REMARK  173  A    between atoms: _442  and  _445
REMARK  174  A    between atoms: _445  and  _446
REMARK  175  A    between atoms: _451  and  _453
REMARK  176  A    between atoms: _453  and  _454
REMARK  177  A    between atoms: _457  and  _458
REMARK  178  A    between atoms: _463  and  _465
REMARK  179  A    between atoms: _465  and  _466
REMARK  180  A    between atoms: _465  and  _468
REMARK  181  A    between atoms: _468  and  _469
REMARK  182  A    between atoms: _479  and  _481
REMARK  183  A    between atoms: _481  and  _482
REMARK  184  A    between atoms: _486  and  _487
REMARK  185  A    between atoms: _492  and  _494
REMARK  186  A    between atoms: _494  and  _495
REMARK  187  A    between atoms: _494  and  _497
REMARK  188  A    between atoms: _497  and  _498
REMARK  189  A    between atoms: _498  and  _499
REMARK  190  A    between atoms: _504  and  _506
REMARK  191  A    between atoms: _506  and  _507
REMARK  192  A    between atoms: _509  and  _511
REMARK  193  A    between atoms: _511  and  _512
REMARK  194  A    between atoms: _514  and  _516
REMARK  195  A    between atoms: _516  and  _517
REMARK  196  A    between atoms: _516  and  _519
REMARK  197  A    between atoms: _519  and  _520
REMARK  198  A    between atoms: _530  and  _532
REMARK  199  A    between atoms: _532  and  _533
REMARK  200  A    between atoms: _532  and  _535
REMARK  201  A    between atoms: _535  and  _536
REMARK  202  A    between atoms: _539  and  _541
REMARK  203  A    between atoms: _541  and  _542
REMARK  204  A    between atoms: _541  and  _544
REMARK  205  A    between atoms: _544  and  _545
REMARK  206  A    between atoms: _548  and  _550
REMARK  207  A    between atoms: _550  and  _551
REMARK  208  A    between atoms: _550  and  _553
REMARK  209  A    between atoms: _553  and  _554
REMARK  210  A    between atoms: _554  and  _555
REMARK  211  A    between atoms: _555  and  _556
REMARK  212  A    between atoms: _565  and  _567
REMARK  213  A    between atoms: _567  and  _568
REMARK  214  A    between atoms: _567  and  _570
REMARK  215  A    between atoms: _570  and  _571
REMARK  216  A    between atoms: _581  and  _583
REMARK  217  A    between atoms: _583  and  _584
REMARK  218  A    between atoms: _586  and  _588
REMARK  219  A    between atoms: _588  and  _589
REMARK  220  A    between atoms: _588  and  _591
REMARK  221  A    between atoms: _591  and  _592
REMARK  222  A    between atoms: _597  and  _599
REMARK  223  A    between atoms: _599  and  _600
REMARK  224  A    between atoms: _603  and  _605
REMARK  225  A    between atoms: _605  and  _606
REMARK  226  A    between atoms: _605  and  _608
REMARK  227  A    between atoms: _608  and  _609
REMARK  228  A    between atoms: _612  and  _614
REMARK  229  A    between atoms: _614  and  _615
REMARK  230  A    between atoms: _614  and  _617
REMARK  231  A    between atoms: _617  and  _618
REMARK  232  A    between atoms: _624  and  _626
REMARK  233  A    between atoms: _626  and  _627
REMARK  234  A    between atoms: _626  and  _629
REMARK  235  A    between atoms: _629  and  _630
REMARK  236  A    between atoms: _630  and  _631
REMARK  237  A    between atoms: _635  and  _636
REMARK  238  A    between atoms: _641  and  _643
REMARK  239  A    between atoms: _643  and  _644
REMARK  240  A    between atoms: _643  and  _646
REMARK  241  A    between atoms: _646  and  _647
REMARK  242  A    between atoms: _647  and  _648
REMARK  243  A    between atoms: _648  and  _649
REMARK                            x       y       z     vdW  Elec       q    Type
REMARK                         _______ _______ _______ _____ _____    ______ ____
ROOT
ATOM      1  O   HOH     1     -15.491  -8.925  16.230  0.00  0.00    +0.000 OA
ENDROOT
TORSDOF 0
REMARK  Name = ../refined-set-2016/3k02/3k02_pocket.pdb
REMARK  243 active torsions:
REMARK  status: ('A' for Active; 'I' for Inactive)
REMARK    1  A    between atoms: _1  and  _3
REMARK    2  A    between atoms: _3  and  _4
REMARK    3  A    between atoms: _3  and  _6
REMARK    4  A    between atoms: _6  and  _7
REMARK    5  A    between atoms: _10  and  _12
REMARK    6  A    between atoms: _12  and  _13
REMARK    7  A    between atoms: _12  and  _15
REMARK    8  A    between atoms: _15  and  _16
REMARK    9  A    between atoms: _19  and  _21
REMARK   10  A    between atoms: _21  and  _22
REMARK   11  A    between atoms: _21  and  _24
REMARK   12  A    between atoms: _24  and  _25
REMARK   13  A    between atoms: _27  and  _29
REMARK   14  A    between atoms: _29  and  _30
REMARK   15  A    between atoms: _29  and  _32
REMARK   16  A    between atoms: _32  and  _33
REMARK   17  A    between atoms: _38  and  _40
REMARK   18  A    between atoms: _40  and  _41
REMARK   19  A    between atoms: _40  and  _43
REMARK   20  A    between atoms: _43  and  _44
REMARK   21  A    between atoms: _44  and  _45
REMARK   22  A    between atoms: _48  and  _50
REMARK   23  A    between atoms: _50  and  _51
REMARK   24  A    between atoms: _54  and  _56
REMARK   25  A    between atoms: _56  and  _57
REMARK   26  A    between atoms: _56  and  _59
REMARK   27  A    between atoms: _59  and  _60
REMARK   28  A    between atoms: _60  and  _61
REMARK   29  A    between atoms: _64  and  _66
REMARK   30  A    between atoms: _66  and  _67
REMARK   31  A    between atoms: _66  and  _69
REMARK   32  A    between atoms: _69  and  _70
REMARK   33  A    between atoms: _70  and  _71
REMARK   34  A    between atoms: _71  and  _72
REMARK   35  A    between atoms: _72  and  _73
REMARK   36  A    between atoms: _77  and  _79
REMARK   37  A    between atoms: _79  and  _80
REMARK   38  A    between atoms: _79  and  _82
REMARK   39  A    between atoms: _82  and  _83
REMARK   40  A    between atoms: _88  and  _89
REMARK   41  A    between atoms: _91  and  _93
REMARK   42  A    between atoms: _93  and  _94
REMARK   43  A    between atoms: _93  and  _96
REMARK   44  A    between atoms: _96  and  _97
REMARK   45  A    between atoms: _102  and  _104
REMARK   46  A    between atoms: _104  and  _105
REMARK   47  A    between atoms: _104  and  _107
REMARK   48  A    between atoms: _111  and  _112
REMARK   49  A    between atoms: _117  and  _119
REMARK   50  A    between atoms: _119  and  _120
REMARK   51  A    between atoms: _119  and  _122
REMARK   52  A    between atoms: _122  and  _123
REMARK   53  A    between atoms: _129  and  _131
REMARK   54  A    between atoms: _131  and  _132
REMARK   55  A    between atoms: _134  and  _136
REMARK   56  A    between atoms: _136  and  _137
REMARK   57  A    between atoms: _136  and  _139
REMARK   58  A    between atoms: _139  and  _140
REMARK   59  A    between atoms: _140  and  _141
REMARK   60  A    between atoms: _144  and  _146
REMARK   61  A    between atoms: _146  and  _147
REMARK   62  A    between atoms: _150  and  _152
REMARK   63  A    between atoms: _152  and  _153
REMARK   64  A    between atoms: _152  and  _155
REMARK   65  A    between atoms: _155  and  _156
REMARK   66  A    between atoms: _161  and  _163
REMARK   67  A    between atoms: _163  and  _164
REMARK   68  A    between atoms: _167  and  _169
REMARK   69  A    between atoms: _169  and  _170
REMARK   70  A    between atoms: _169  and  _172
REMARK   71  A    between atoms: _172  and  _173
REMARK   72  A    between atoms: _173  and  _174
REMARK   73  A    between atoms: _174  and  _175
REMARK   74  A    between atoms: _175  and  _176
REMARK   75  A    between atoms: _180  and  _182
REMARK   76  A    between atoms: _182  and  _183
REMARK   77  A    between atoms: _182  and  _185
REMARK   78  A    between atoms: _185  and  _186
REMARK   79  A    between atoms: _186  and  _187
REMARK   80  A    between atoms: _187  and  _188
REMARK   81  A    between atoms: _197  and  _199
REMARK   82  A    between atoms: _199  and  _200
REMARK   83  A    between atoms: _199  and  _202
REMARK   84  A    between atoms: _202  and  _203
REMARK   85  A    between atoms: _203  and  _204
REMARK   86  A    between atoms: _207  and  _209
REMARK   87  A    between atoms: _209  and  _210
REMARK   88  A    between atoms: _209  and  _212
REMARK   89  A    between atoms: _215  and  _217
REMARK   90  A    between atoms: _217  and  _218
REMARK   91  A    between atoms: _221  and  _223
REMARK   92  A    between atoms: _223  and  _224
REMARK   93  A    between atoms: _223  and  _226
REMARK   94  A    between atoms: _226  and  _227
REMARK   95  A    between atoms: _237  and  _239
REMARK   96  A    between atoms: _239  and  _240
REMARK   97  A    between atoms: _239  and  _242
REMARK   98  A    between atoms: _245  and  _247
REMARK   99  A    between atoms: _247  and  _248
REMARK  100  A    between atoms: _247  and  _250
REMARK  101  A    between atoms: _250  and  _251
REMARK  102  A    between atoms: _254  and  _256
REMARK  103  A    between atoms: _256  and  _257
REMARK  104  A    between atoms: _256  and  _259
REMARK  105  A    between atoms: _259  and  _260
REMARK  106  A    between atoms: _266  and  _268
REMARK  107  A    between atoms: _268  and  _269
REMARK  108  A    between atoms: _268  and  _271
REMARK  109  A    between atoms: _271  and  _272
REMARK  110  A    between atoms: _272  and  _273
REMARK  111  A    between atoms: _278  and  _280
REMARK  112  A    between atoms: _280  and  _281
REMARK  113  A    between atoms: _280  and  _283
REMARK  114  A    between atoms: _286  and  _288
REMARK  115  A    between atoms: _288  and  _289
REMARK  116  A    between atoms: _288  and  _291
REMARK  117  A    between atoms: _291  and  _292
REMARK  118  A    between atoms: _295  and  _297
REMARK  119  A    between atoms: _297  and  _298
REMARK  120  A    between atoms: _297  and  _300
REMARK  121  A    between atoms: _300  and  _301
REMARK  122  A    between atoms: _304  and  _306
REMARK  123  A    between atoms: _306  and  _307
REMARK  124  A    between atoms: _306  and  _309
REMARK  125  A    between atoms: _309  and  _310
REMARK  126  A    between atoms: _313  and  _315
REMARK  127  A    between atoms: _315  and  _316
REMARK  128  A    between atoms: _315  and  _318
REMARK  129  A    between atoms: _318  and  _319
REMARK  130  A    between atoms: _322  and  _324
REMARK  131  A    between atoms: _324  and  _325
REMARK  132  A    between atoms: _324  and  _327
REMARK  133  A    between atoms: _327  and  _328
REMARK  134  A    between atoms: _328  and  _329
REMARK  135  A    between atoms: _329  and  _330
REMARK  136  A    between atoms: _339  and  _341
REMARK  137  A    between atoms: _341  and  _342
REMARK  138  A    between atoms: _341  and  _344
REMARK  139  A    between atoms: _344  and  _345
REMARK  140  A    between atoms: _348  and  _350
REMARK  141  A    between atoms: _350  and  _351
REMARK  142  A    between atoms: _350  and  _353
REMARK  143  A    between atoms: _353  and  _354
REMARK  144  A    between atoms: _358  and  _359
REMARK  145  A    between atoms: _364  and  _366
REMARK  146  A    between atoms: _366  and  _367
REMARK  147  A    between atoms: _366  and  _369
REMARK  148  A    between atoms: _369  and  _370
REMARK  149  A    between atoms: _375  and  _376
REMARK  150  A    between atoms: _378  and  _380
REMARK  151  A    between atoms: _380  and  _381
REMARK  152  A    between atoms: _380  and  _383
REMARK  153  A    between atoms: _383  and  _384
REMARK  154  A    between atoms: _394  and  _396
REMARK  155  A    between atoms: _396  and  _397
REMARK  156  A    between atoms: _396  and  _399
REMARK  157  A    between atoms: _399  and  _400
REMARK  158  A    between atoms: _406  and  _408
REMARK  159  A    between atoms: _408  and  _409
REMARK  160  A    between atoms: _408  and  _411
REMARK  161  A    between atoms: _411  and  _412
REMARK  162  A    between atoms: _415  and  _417
REMARK  163  A    between atoms: _417  and  _418
REMARK  164  A    between atoms: _417  and  _420
REMARK  165  A    between atoms: _420  and  _421
REMARK  166  A    between atoms: _431  and  _433
REMARK  167  A    between atoms: _433  and  _434
REMARK  168  A    between atoms: _433  and  _436
REMARK  169  A    between atoms: _436  and  _437
REMARK  170  A    between atoms: _437  and  _438
REMARK  171  A    between atoms: _440  and  _442
REMARK  172  A    between atoms: _442  and  _443
REMARK  173  A    between atoms: _442  and  _445
REMARK  174  A    between atoms: _445  and  _446
REMARK  175  A    between atoms: _451  and  _453
REMARK  176  A    between atoms: _453  and  _454
REMARK  177  A    between atoms: _457  and  _458
REMARK  178  A    between atoms: _463  and  _465
REMARK  179  A    between atoms: _465  and  _466
REMARK  180  A    between atoms: _465  and  _468
REMARK  181  A    between atoms: _468  and  _469
REMARK  182  A    between atoms: _479  and  _481
REMARK  183  A    between atoms: _481  and  _482
REMARK  184  A    between atoms: _486  and  _487
REMARK  185  A    between atoms: _492  and  _494
REMARK  186  A    between atoms: _494  and  _495
REMARK  187  A    between atoms: _494  and  _497
REMARK  188  A    between atoms: _497  and  _498
REMARK  189  A    between atoms: _498  and  _499
REMARK  190  A    between atoms: _504  and  _506
REMARK  191  A    between atoms: _506  and  _507
REMARK  192  A    between atoms: _509  and  _511
REMARK  193  A    between atoms: _511  and  _512
REMARK  194  A    between atoms: _514  and  _516
REMARK  195  A    between atoms: _516  and  _517
REMARK  196  A    between atoms: _516  and  _519
REMARK  197  A    between atoms: _519  and  _520
REMARK  198  A    between atoms: _530  and  _532
REMARK  199  A    between atoms: _532  and  _533
REMARK  200  A    between atoms: _532  and  _535
REMARK  201  A    between atoms: _535  and  _536
REMARK  202  A    between atoms: _539  and  _541
REMARK  203  A    between atoms: _541  and  _542
REMARK  204  A    between atoms: _541  and  _544
REMARK  205  A    between atoms: _544  and  _545
REMARK  206  A    between atoms: _548  and  _550
REMARK  207  A    between atoms: _550  and  _551
REMARK  208  A    between atoms: _550  and  _553
REMARK  209  A    between atoms: _553  and  _554
REMARK  210  A    between atoms: _554  and  _555
REMARK  211  A    between atoms: _555  and  _556
REMARK  212  A    between atoms: _565  and  _567
REMARK  213  A    between atoms: _567  and  _568
REMARK  214  A    between atoms: _567  and  _570
REMARK  215  A    between atoms: _570  and  _571
REMARK  216  A    between atoms: _581  and  _583
REMARK  217  A    between atoms: _583  and  _584
REMARK  218  A    between atoms: _586  and  _588
REMARK  219  A    between atoms: _588  and  _589
REMARK  220  A    between atoms: _588  and  _591
REMARK  221  A    between atoms: _591  and  _592
REMARK  222  A    between atoms: _597  and  _599
REMARK  223  A    between atoms: _599  and  _600
REMARK  224  A    between atoms: _603  and  _605
REMARK  225  A    between atoms: _605  and  _606
REMARK  226  A    between atoms: _605  and  _608
REMARK  227  A    between atoms: _608  and  _609
REMARK  228  A    between atoms: _612  and  _614
REMARK  229  A    between atoms: _614  and  _615
REMARK  230  A    between atoms: _614  and  _617
REMARK  231  A    between atoms: _617  and  _618
REMARK  232  A    between atoms: _624  and  _626
REMARK  233  A    between atoms: _626  and  _627
REMARK  234  A    between atoms: _626  and  _629
REMARK  235  A    between atoms: _629  and  _630
REMARK  236  A    between atoms: _630  and  _631
REMARK  237  A    between atoms: _635  and  _636
REMARK  238  A    between atoms: _641  and  _643
REMARK  239  A    between atoms: _643  and  _644
REMARK  240  A    between atoms: _643  and  _646
REMARK  241  A    between atoms: _646  and  _647
REMARK  242  A    between atoms: _647  and  _648
REMARK  243  A    between atoms: _648  and  _649
REMARK                            x       y       z     vdW  Elec       q    Type
REMARK                         _______ _______ _______ _____ _____    ______ ____
ROOT
ATOM      1  O   HOH     1      -9.655 -10.926  18.181  0.00  0.00    +0.000 OA
ENDROOT
TORSDOF 0
REMARK  Name = ../refined-set-2016/3k02/3k02_pocket.pdb
REMARK  243 active torsions:
REMARK  status: ('A' for Active; 'I' for Inactive)
REMARK    1  A    between atoms: _1  and  _3
REMARK    2  A    between atoms: _3  and  _4
REMARK    3  A    between atoms: _3  and  _6
REMARK    4  A    between atoms: _6  and  _7
REMARK    5  A    between atoms: _10  and  _12
REMARK    6  A    between atoms: _12  and  _13
REMARK    7  A    between atoms: _12  and  _15
REMARK    8  A    between atoms: _15  and  _16
REMARK    9  A    between atoms: _19  and  _21
REMARK   10  A    between atoms: _21  and  _22
REMARK   11  A    between atoms: _21  and  _24
REMARK   12  A    between atoms: _24  and  _25
REMARK   13  A    between atoms: _27  and  _29
REMARK   14  A    between atoms: _29  and  _30
REMARK   15  A    between atoms: _29  and  _32
REMARK   16  A    between atoms: _32  and  _33
REMARK   17  A    between atoms: _38  and  _40
REMARK   18  A    between atoms: _40  and  _41
REMARK   19  A    between atoms: _40  and  _43
REMARK   20  A    between atoms: _43  and  _44
REMARK   21  A    between atoms: _44  and  _45
REMARK   22  A    between atoms: _48  and  _50
REMARK   23  A    between atoms: _50  and  _51
REMARK   24  A    between atoms: _54  and  _56
REMARK   25  A    between atoms: _56  and  _57
REMARK   26  A    between atoms: _56  and  _59
REMARK   27  A    between atoms: _59  and  _60
REMARK   28  A    between atoms: _60  and  _61
REMARK   29  A    between atoms: _64  and  _66
REMARK   30  A    between atoms: _66  and  _67
REMARK   31  A    between atoms: _66  and  _69
REMARK   32  A    between atoms: _69  and  _70
REMARK   33  A    between atoms: _70  and  _71
REMARK   34  A    between atoms: _71  and  _72
REMARK   35  A    between atoms: _72  and  _73
REMARK   36  A    between atoms: _77  and  _79
REMARK   37  A    between atoms: _79  and  _80
REMARK   38  A    between atoms: _79  and  _82
REMARK   39  A    between atoms: _82  and  _83
REMARK   40  A    between atoms: _88  and  _89
REMARK   41  A    between atoms: _91  and  _93
REMARK   42  A    between atoms: _93  and  _94
REMARK   43  A    between atoms: _93  and  _96
REMARK   44  A    between atoms: _96  and  _97
REMARK   45  A    between atoms: _102  and  _104
REMARK   46  A    between atoms: _104  and  _105
REMARK   47  A    between atoms: _104  and  _107
REMARK   48  A    between atoms: _111  and  _112
REMARK   49  A    between atoms: _117  and  _119
REMARK   50  A    between atoms: _119  and  _120
REMARK   51  A    between atoms: _119  and  _122
REMARK   52  A    between atoms: _122  and  _123
REMARK   53  A    between atoms: _129  and  _131
REMARK   54  A    between atoms: _131  and  _132
REMARK   55  A    between atoms: _134  and  _136
REMARK   56  A    between atoms: _136  and  _137
REMARK   57  A    between atoms: _136  and  _139
REMARK   58  A    between atoms: _139  and  _140
REMARK   59  A    between atoms: _140  and  _141
REMARK   60  A    between atoms: _144  and  _146
REMARK   61  A    between atoms: _146  and  _147
REMARK   62  A    between atoms: _150  and  _152
REMARK   63  A    between atoms: _152  and  _153
REMARK   64  A    between atoms: _152  and  _155
REMARK   65  A    between atoms: _155  and  _156
REMARK   66  A    between atoms: _161  and  _163
REMARK   67  A    between atoms: _163  and  _164
REMARK   68  A    between atoms: _167  and  _169
REMARK   69  A    between atoms: _169  and  _170
REMARK   70  A    between atoms: _169  and  _172
REMARK   71  A    between atoms: _172  and  _173
REMARK   72  A    between atoms: _173  and  _174
REMARK   73  A    between atoms: _174  and  _175
REMARK   74  A    between atoms: _175  and  _176
REMARK   75  A    between atoms: _180  and  _182
REMARK   76  A    between atoms: _182  and  _183
REMARK   77  A    between atoms: _182  and  _185
REMARK   78  A    between atoms: _185  and  _186
REMARK   79  A    between atoms: _186  and  _187
REMARK   80  A    between atoms: _187  and  _188
REMARK   81  A    between atoms: _197  and  _199
REMARK   82  A    between atoms: _199  and  _200
REMARK   83  A    between atoms: _199  and  _202
REMARK   84  A    between atoms: _202  and  _203
REMARK   85  A    between atoms: _203  and  _204
REMARK   86  A    between atoms: _207  and  _209
REMARK   87  A    between atoms: _209  and  _210
REMARK   88  A    between atoms: _209  and  _212
REMARK   89  A    between atoms: _215  and  _217
REMARK   90  A    between atoms: _217  and  _218
REMARK   91  A    between atoms: _221  and  _223
REMARK   92  A    between atoms: _223  and  _224
REMARK   93  A    between atoms: _223  and  _226
REMARK   94  A    between atoms: _226  and  _227
REMARK   95  A    between atoms: _237  and  _239
REMARK   96  A    between atoms: _239  and  _240
REMARK   97  A    between atoms: _239  and  _242
REMARK   98  A    between atoms: _245  and  _247
REMARK   99  A    between atoms: _247  and  _248
REMARK  100  A    between atoms: _247  and  _250
REMARK  101  A    between atoms: _250  and  _251
REMARK  102  A    between atoms: _254  and  _256
REMARK  103  A    between atoms: _256  and  _257
REMARK  104  A    between atoms: _256  and  _259
REMARK  105  A    between atoms: _259  and  _260
REMARK  106  A    between atoms: _266  and  _268
REMARK  107  A    between atoms: _268  and  _269
REMARK  108  A    between atoms: _268  and  _271
REMARK  109  A    between atoms: _271  and  _272
REMARK  110  A    between atoms: _272  and  _273
REMARK  111  A    between atoms: _278  and  _280
REMARK  112  A    between atoms: _280  and  _281
REMARK  113  A    between atoms: _280  and  _283
REMARK  114  A    between atoms: _286  and  _288
REMARK  115  A    between atoms: _288  and  _289
REMARK  116  A    between atoms: _288  and  _291
REMARK  117  A    between atoms: _291  and  _292
REMARK  118  A    between atoms: _295  and  _297
REMARK  119  A    between atoms: _297  and  _298
REMARK  120  A    between atoms: _297  and  _300
REMARK  121  A    between atoms: _300  and  _301
REMARK  122  A    between atoms: _304  and  _306
REMARK  123  A    between atoms: _306  and  _307
REMARK  124  A    between atoms: _306  and  _309
REMARK  125  A    between atoms: _309  and  _310
REMARK  126  A    between atoms: _313  and  _315
REMARK  127  A    between atoms: _315  and  _316
REMARK  128  A    between atoms: _315  and  _318
REMARK  129  A    between atoms: _318  and  _319
REMARK  130  A    between atoms: _322  and  _324
REMARK  131  A    between atoms: _324  and  _325
REMARK  132  A    between atoms: _324  and  _327
REMARK  133  A    between atoms: _327  and  _328
REMARK  134  A    between atoms: _328  and  _329
REMARK  135  A    between atoms: _329  and  _330
REMARK  136  A    between atoms: _339  and  _341
REMARK  137  A    between atoms: _341  and  _342
REMARK  138  A    between atoms: _341  and  _344
REMARK  139  A    between atoms: _344  and  _345
REMARK  140  A    between atoms: _348  and  _350
REMARK  141  A    between atoms: _350  and  _351
REMARK  142  A    between atoms: _350  and  _353
REMARK  143  A    between atoms: _353  and  _354
REMARK  144  A    between atoms: _358  and  _359
REMARK  145  A    between atoms: _364  and  _366
REMARK  146  A    between atoms: _366  and  _367
REMARK  147  A    between atoms: _366  and  _369
REMARK  148  A    between atoms: _369  and  _370
REMARK  149  A    between atoms: _375  and  _376
REMARK  150  A    between atoms: _378  and  _380
REMARK  151  A    between atoms: _380  and  _381
REMARK  152  A    between atoms: _380  and  _383
REMARK  153  A    between atoms: _383  and  _384
REMARK  154  A    between atoms: _394  and  _396
REMARK  155  A    between atoms: _396  and  _397
REMARK  156  A    between atoms: _396  and  _399
REMARK  157  A    between atoms: _399  and  _400
REMARK  158  A    between atoms: _406  and  _408
REMARK  159  A    between atoms: _408  and  _409
REMARK  160  A    between atoms: _408  and  _411
REMARK  161  A    between atoms: _411  and  _412
REMARK  162  A    between atoms: _415  and  _417
REMARK  163  A    between atoms: _417  and  _418
REMARK  164  A    between atoms: _417  and  _420
REMARK  165  A    between atoms: _420  and  _421
REMARK  166  A    between atoms: _431  and  _433
REMARK  167  A    between atoms: _433  and  _434
REMARK  168  A    between atoms: _433  and  _436
REMARK  169  A    between atoms: _436  and  _437
REMARK  170  A    between atoms: _437  and  _438
REMARK  171  A    between atoms: _440  and  _442
REMARK  172  A    between atoms: _442  and  _443
REMARK  173  A    between atoms: _442  and  _445
REMARK  174  A    between atoms: _445  and  _446
REMARK  175  A    between atoms: _451  and  _453
REMARK  176  A    between atoms: _453  and  _454
REMARK  177  A    between atoms: _457  and  _458
REMARK  178  A    between atoms: _463  and  _465
REMARK  179  A    between atoms: _465  and  _466
REMARK  180  A    between atoms: _465  and  _468
REMARK  181  A    between atoms: _468  and  _469
REMARK  182  A    between atoms: _479  and  _481
REMARK  183  A    between atoms: _481  and  _482
REMARK  184  A    between atoms: _486  and  _487
REMARK  185  A    between atoms: _492  and  _494
REMARK  186  A    between atoms: _494  and  _495
REMARK  187  A    between atoms: _494  and  _497
REMARK  188  A    between atoms: _497  and  _498
REMARK  189  A    between atoms: _498  and  _499
REMARK  190  A    between atoms: _504  and  _506
REMARK  191  A    between atoms: _506  and  _507
REMARK  192  A    between atoms: _509  and  _511
REMARK  193  A    between atoms: _511  and  _512
REMARK  194  A    between atoms: _514  and  _516
REMARK  195  A    between atoms: _516  and  _517
REMARK  196  A    between atoms: _516  and  _519
REMARK  197  A    between atoms: _519  and  _520
REMARK  198  A    between atoms: _530  and  _532
REMARK  199  A    between atoms: _532  and  _533
REMARK  200  A    between atoms: _532  and  _535
REMARK  201  A    between atoms: _535  and  _536
REMARK  202  A    between atoms: _539  and  _541
REMARK  203  A    between atoms: _541  and  _542
REMARK  204  A    between atoms: _541  and  _544
REMARK  205  A    between atoms: _544  and  _545
REMARK  206  A    between atoms: _548  and  _550
REMARK  207  A    between atoms: _550  and  _551
REMARK  208  A    between atoms: _550  and  _553
REMARK  209  A    between atoms: _553  and  _554
REMARK  210  A    between atoms: _554  and  _555
REMARK  211  A    between atoms: _555  and  _556
REMARK  212  A    between atoms: _565  and  _567
REMARK  213  A    between atoms: _567  and  _568
REMARK  214  A    between atoms: _567  and  _570
REMARK  215  A    between atoms: _570  and  _571
REMARK  216  A    between atoms: _581  and  _583
REMARK  217  A    between atoms: _583  and  _584
REMARK  218  A    between atoms: _586  and  _588
REMARK  219  A    between atoms: _588  and  _589
REMARK  220  A    between atoms: _588  and  _591
REMARK  221  A    between atoms: _591  and  _592
REMARK  222  A    between atoms: _597  and  _599
REMARK  223  A    between atoms: _599  and  _600
REMARK  224  A    between atoms: _603  and  _605
REMARK  225  A    between atoms: _605  and  _606
REMARK  226  A    between atoms: _605  and  _608
REMARK  227  A    between atoms: _608  and  _609
REMARK  228  A    between atoms: _612  and  _614
REMARK  229  A    between atoms: _614  and  _615
REMARK  230  A    between atoms: _614  and  _617
REMARK  231  A    between atoms: _617  and  _618
REMARK  232  A    between atoms: _624  and  _626
REMARK  233  A    between atoms: _626  and  _627
REMARK  234  A    between atoms: _626  and  _629
REMARK  235  A    between atoms: _629  and  _630
REMARK  236  A    between atoms: _630  and  _631
REMARK  237  A    between atoms: _635  and  _636
REMARK  238  A    between atoms: _641  and  _643
REMARK  239  A    between atoms: _643  and  _644
REMARK  240  A    between atoms: _643  and  _646
REMARK  241  A    between atoms: _646  and  _647
REMARK  242  A    between atoms: _647  and  _648
REMARK  243  A    between atoms: _648  and  _649
REMARK                            x       y       z     vdW  Elec       q    Type
REMARK                         _______ _______ _______ _____ _____    ______ ____
ROOT
ATOM      1  O   HOH     1      -3.807 -19.809  19.319  0.00  0.00    +0.000 OA
ENDROOT
TORSDOF 0
REMARK  Name = ../refined-set-2016/3k02/3k02_pocket.pdb
REMARK  243 active torsions:
REMARK  status: ('A' for Active; 'I' for Inactive)
REMARK    1  A    between atoms: _1  and  _3
REMARK    2  A    between atoms: _3  and  _4
REMARK    3  A    between atoms: _3  and  _6
REMARK    4  A    between atoms: _6  and  _7
REMARK    5  A    between atoms: _10  and  _12
REMARK    6  A    between atoms: _12  and  _13
REMARK    7  A    between atoms: _12  and  _15
REMARK    8  A    between atoms: _15  and  _16
REMARK    9  A    between atoms: _19  and  _21
REMARK   10  A    between atoms: _21  and  _22
REMARK   11  A    between atoms: _21  and  _24
REMARK   12  A    between atoms: _24  and  _25
REMARK   13  A    between atoms: _27  and  _29
REMARK   14  A    between atoms: _29  and  _30
REMARK   15  A    between atoms: _29  and  _32
REMARK   16  A    between atoms: _32  and  _33
REMARK   17  A    between atoms: _38  and  _40
REMARK   18  A    between atoms: _40  and  _41
REMARK   19  A    between atoms: _40  and  _43
REMARK   20  A    between atoms: _43  and  _44
REMARK   21  A    between atoms: _44  and  _45
REMARK   22  A    between atoms: _48  and  _50
REMARK   23  A    between atoms: _50  and  _51
REMARK   24  A    between atoms: _54  and  _56
REMARK   25  A    between atoms: _56  and  _57
REMARK   26  A    between atoms: _56  and  _59
REMARK   27  A    between atoms: _59  and  _60
REMARK   28  A    between atoms: _60  and  _61
REMARK   29  A    between atoms: _64  and  _66
REMARK   30  A    between atoms: _66  and  _67
REMARK   31  A    between atoms: _66  and  _69
REMARK   32  A    between atoms: _69  and  _70
REMARK   33  A    between atoms: _70  and  _71
REMARK   34  A    between atoms: _71  and  _72
REMARK   35  A    between atoms: _72  and  _73
REMARK   36  A    between atoms: _77  and  _79
REMARK   37  A    between atoms: _79  and  _80
REMARK   38  A    between atoms: _79  and  _82
REMARK   39  A    between atoms: _82  and  _83
REMARK   40  A    between atoms: _88  and  _89
REMARK   41  A    between atoms: _91  and  _93
REMARK   42  A    between atoms: _93  and  _94
REMARK   43  A    between atoms: _93  and  _96
REMARK   44  A    between atoms: _96  and  _97
REMARK   45  A    between atoms: _102  and  _104
REMARK   46  A    between atoms: _104  and  _105
REMARK   47  A    between atoms: _104  and  _107
REMARK   48  A    between atoms: _111  and  _112
REMARK   49  A    between atoms: _117  and  _119
REMARK   50  A    between atoms: _119  and  _120
REMARK   51  A    between atoms: _119  and  _122
REMARK   52  A    between atoms: _122  and  _123
REMARK   53  A    between atoms: _129  and  _131
REMARK   54  A    between atoms: _131  and  _132
REMARK   55  A    between atoms: _134  and  _136
REMARK   56  A    between atoms: _136  and  _137
REMARK   57  A    between atoms: _136  and  _139
REMARK   58  A    between atoms: _139  and  _140
REMARK   59  A    between atoms: _140  and  _141
REMARK   60  A    between atoms: _144  and  _146
REMARK   61  A    between atoms: _146  and  _147
REMARK   62  A    between atoms: _150  and  _152
REMARK   63  A    between atoms: _152  and  _153
REMARK   64  A    between atoms: _152  and  _155
REMARK   65  A    between atoms: _155  and  _156
REMARK   66  A    between atoms: _161  and  _163
REMARK   67  A    between atoms: _163  and  _164
REMARK   68  A    between atoms: _167  and  _169
REMARK   69  A    between atoms: _169  and  _170
REMARK   70  A    between atoms: _169  and  _172
REMARK   71  A    between atoms: _172  and  _173
REMARK   72  A    between atoms: _173  and  _174
REMARK   73  A    between atoms: _174  and  _175
REMARK   74  A    between atoms: _175  and  _176
REMARK   75  A    between atoms: _180  and  _182
REMARK   76  A    between atoms: _182  and  _183
REMARK   77  A    between atoms: _182  and  _185
REMARK   78  A    between atoms: _185  and  _186
REMARK   79  A    between atoms: _186  and  _187
REMARK   80  A    between atoms: _187  and  _188
REMARK   81  A    between atoms: _197  and  _199
REMARK   82  A    between atoms: _199  and  _200
REMARK   83  A    between atoms: _199  and  _202
REMARK   84  A    between atoms: _202  and  _203
REMARK   85  A    between atoms: _203  and  _204
REMARK   86  A    between atoms: _207  and  _209
REMARK   87  A    between atoms: _209  and  _210
REMARK   88  A    between atoms: _209  and  _212
REMARK   89  A    between atoms: _215  and  _217
REMARK   90  A    between atoms: _217  and  _218
REMARK   91  A    between atoms: _221  and  _223
REMARK   92  A    between atoms: _223  and  _224
REMARK   93  A    between atoms: _223  and  _226
REMARK   94  A    between atoms: _226  and  _227
REMARK   95  A    between atoms: _237  and  _239
REMARK   96  A    between atoms: _239  and  _240
REMARK   97  A    between atoms: _239  and  _242
REMARK   98  A    between atoms: _245  and  _247
REMARK   99  A    between atoms: _247  and  _248
REMARK  100  A    between atoms: _247  and  _250
REMARK  101  A    between atoms: _250  and  _251
REMARK  102  A    between atoms: _254  and  _256
REMARK  103  A    between atoms: _256  and  _257
REMARK  104  A    between atoms: _256  and  _259
REMARK  105  A    between atoms: _259  and  _260
REMARK  106  A    between atoms: _266  and  _268
REMARK  107  A    between atoms: _268  and  _269
REMARK  108  A    between atoms: _268  and  _271
REMARK  109  A    between atoms: _271  and  _272
REMARK  110  A    between atoms: _272  and  _273
REMARK  111  A    between atoms: _278  and  _280
REMARK  112  A    between atoms: _280  and  _281
REMARK  113  A    between atoms: _280  and  _283
REMARK  114  A    between atoms: _286  and  _288
REMARK  115  A    between atoms: _288  and  _289
REMARK  116  A    between atoms: _288  and  _291
REMARK  117  A    between atoms: _291  and  _292
REMARK  118  A    between atoms: _295  and  _297
REMARK  119  A    between atoms: _297  and  _298
REMARK  120  A    between atoms: _297  and  _300
REMARK  121  A    between atoms: _300  and  _301
REMARK  122  A    between atoms: _304  and  _306
REMARK  123  A    between atoms: _306  and  _307
REMARK  124  A    between atoms: _306  and  _309
REMARK  125  A    between atoms: _309  and  _310
REMARK  126  A    between atoms: _313  and  _315
REMARK  127  A    between atoms: _315  and  _316
REMARK  128  A    between atoms: _315  and  _318
REMARK  129  A    between atoms: _318  and  _319
REMARK  130  A    between atoms: _322  and  _324
REMARK  131  A    between atoms: _324  and  _325
REMARK  132  A    between atoms: _324  and  _327
REMARK  133  A    between atoms: _327  and  _328
REMARK  134  A    between atoms: _328  and  _329
REMARK  135  A    between atoms: _329  and  _330
REMARK  136  A    between atoms: _339  and  _341
REMARK  137  A    between atoms: _341  and  _342
REMARK  138  A    between atoms: _341  and  _344
REMARK  139  A    between atoms: _344  and  _345
REMARK  140  A    between atoms: _348  and  _350
REMARK  141  A    between atoms: _350  and  _351
REMARK  142  A    between atoms: _350  and  _353
REMARK  143  A    between atoms: _353  and  _354
REMARK  144  A    between atoms: _358  and  _359
REMARK  145  A    between atoms: _364  and  _366
REMARK  146  A    between atoms: _366  and  _367
REMARK  147  A    between atoms: _366  and  _369
REMARK  148  A    between atoms: _369  and  _370
REMARK  149  A    between atoms: _375  and  _376
REMARK  150  A    between atoms: _378  and  _380
REMARK  151  A    between atoms: _380  and  _381
REMARK  152  A    between atoms: _380  and  _383
REMARK  153  A    between atoms: _383  and  _384
REMARK  154  A    between atoms: _394  and  _396
REMARK  155  A    between atoms: _396  and  _397
REMARK  156  A    between atoms: _396  and  _399
REMARK  157  A    between atoms: _399  and  _400
REMARK  158  A    between atoms: _406  and  _408
REMARK  159  A    between atoms: _408  and  _409
REMARK  160  A    between atoms: _408  and  _411
REMARK  161  A    between atoms: _411  and  _412
REMARK  162  A    between atoms: _415  and  _417
REMARK  163  A    between atoms: _417  and  _418
REMARK  164  A    between atoms: _417  and  _420
REMARK  165  A    between atoms: _420  and  _421
REMARK  166  A    between atoms: _431  and  _433
REMARK  167  A    between atoms: _433  and  _434
REMARK  168  A    between atoms: _433  and  _436
REMARK  169  A    between atoms: _436  and  _437
REMARK  170  A    between atoms: _437  and  _438
REMARK  171  A    between atoms: _440  and  _442
REMARK  172  A    between atoms: _442  and  _443
REMARK  173  A    between atoms: _442  and  _445
REMARK  174  A    between atoms: _445  and  _446
REMARK  175  A    between atoms: _451  and  _453
REMARK  176  A    between atoms: _453  and  _454
REMARK  177  A    between atoms: _457  and  _458
REMARK  178  A    between atoms: _463  and  _465
REMARK  179  A    between atoms: _465  and  _466
REMARK  180  A    between atoms: _465  and  _468
REMARK  181  A    between atoms: _468  and  _469
REMARK  182  A    between atoms: _479  and  _481
REMARK  183  A    between atoms: _481  and  _482
REMARK  184  A    between atoms: _486  and  _487
REMARK  185  A    between atoms: _492  and  _494
REMARK  186  A    between atoms: _494  and  _495
REMARK  187  A    between atoms: _494  and  _497
REMARK  188  A    between atoms: _497  and  _498
REMARK  189  A    between atoms: _498  and  _499
REMARK  190  A    between atoms: _504  and  _506
REMARK  191  A    between atoms: _506  and  _507
REMARK  192  A    between atoms: _509  and  _511
REMARK  193  A    between atoms: _511  and  _512
REMARK  194  A    between atoms: _514  and  _516
REMARK  195  A    between atoms: _516  and  _517
REMARK  196  A    between atoms: _516  and  _519
REMARK  197  A    between atoms: _519  and  _520
REMARK  198  A    between atoms: _530  and  _532
REMARK  199  A    between atoms: _532  and  _533
REMARK  200  A    between atoms: _532  and  _535
REMARK  201  A    between atoms: _535  and  _536
REMARK  202  A    between atoms: _539  and  _541
REMARK  203  A    between atoms: _541  and  _542
REMARK  204  A    between atoms: _541  and  _544
REMARK  205  A    between atoms: _544  and  _545
REMARK  206  A    between atoms: _548  and  _550
REMARK  207  A    between atoms: _550  and  _551
REMARK  208  A    between atoms: _550  and  _553
REMARK  209  A    between atoms: _553  and  _554
REMARK  210  A    between atoms: _554  and  _555
REMARK  211  A    between atoms: _555  and  _556
REMARK  212  A    between atoms: _565  and  _567
REMARK  213  A    between atoms: _567  and  _568
REMARK  214  A    between atoms: _567  and  _570
REMARK  215  A    between atoms: _570  and  _571
REMARK  216  A    between atoms: _581  and  _583
REMARK  217  A    between atoms: _583  and  _584
REMARK  218  A    between atoms: _586  and  _588
REMARK  219  A    between atoms: _588  and  _589
REMARK  220  A    between atoms: _588  and  _591
REMARK  221  A    between atoms: _591  and  _592
REMARK  222  A    between atoms: _597  and  _599
REMARK  223  A    between atoms: _599  and  _600
REMARK  224  A    between atoms: _603  and  _605
REMARK  225  A    between atoms: _605  and  _606
REMARK  226  A    between atoms: _605  and  _608
REMARK  227  A    between atoms: _608  and  _609
REMARK  228  A    between atoms: _612  and  _614
REMARK  229  A    between atoms: _614  and  _615
REMARK  230  A    between atoms: _614  and  _617
REMARK  231  A    between atoms: _617  and  _618
REMARK  232  A    between atoms: _624  and  _626
REMARK  233  A    between atoms: _626  and  _627
REMARK  234  A    between atoms: _626  and  _629
REMARK  235  A    between atoms: _629  and  _630
REMARK  236  A    between atoms: _630  and  _631
REMARK  237  A    between atoms: _635  and  _636
REMARK  238  A    between atoms: _641  and  _643
REMARK  239  A    between atoms: _643  and  _644
REMARK  240  A    between atoms: _643  and  _646
REMARK  241  A    between atoms: _646  and  _647
REMARK  242  A    between atoms: _647  and  _648
REMARK  243  A    between atoms: _648  and  _649
REMARK                            x       y       z     vdW  Elec       q    Type
REMARK                         _______ _______ _______ _____ _____    ______ ____
ROOT
ATOM      1  O   HOH     1     -10.515 -10.075  11.880  0.00  0.00    +0.000 OA
ENDROOT
TORSDOF 0
