REMARK  Name = ../refined-set-2016/1g2o/1g2o_pocket.pdb
REMARK  182 active torsions:
REMARK  status: ('A' for Active; 'I' for Inactive)
REMARK    1  A    between atoms: _1  and  _3
REMARK    2  A    between atoms: _3  and  _4
REMARK    3  A    between atoms: _6  and  _8
REMARK    4  A    between atoms: _8  and  _9
REMARK    5  A    between atoms: _8  and  _11
REMARK    6  A    between atoms: _11  and  _12
REMARK    7  A    between atoms: _14  and  _16
REMARK    8  A    between atoms: _16  and  _17
REMARK    9  A    between atoms: _19  and  _21
REMARK   10  A    between atoms: _21  and  _22
REMARK   11  A    between atoms: _25  and  _27
REMARK   12  A    between atoms: _27  and  _28
REMARK   13  A    between atoms: _31  and  _33
REMARK   14  A    between atoms: _33  and  _34
REMARK   15  A    between atoms: _33  and  _36
REMARK   16  A    between atoms: _36  and  _37
REMARK   17  A    between atoms: _42  and  _44
REMARK   18  A    between atoms: _44  and  _45
REMARK   19  A    between atoms: _44  and  _47
REMARK   20  A    between atoms: _47  and  _48
REMARK   21  A    between atoms: _48  and  _49
REMARK   22  A    between atoms: _49  and  _50
REMARK   23  A    between atoms: _59  and  _61
REMARK   24  A    between atoms: _61  and  _62
REMARK   25  A    between atoms: _61  and  _64
REMARK   26  A    between atoms: _64  and  _65
REMARK   27  A    between atoms: _68  and  _70
REMARK   28  A    between atoms: _70  and  _71
REMARK   29  A    between atoms: _70  and  _73
REMARK   30  A    between atoms: _73  and  _74
REMARK   31  A    between atoms: _79  and  _81
REMARK   32  A    between atoms: _81  and  _82
REMARK   33  A    between atoms: _85  and  _87
REMARK   34  A    between atoms: _87  and  _88
REMARK   35  A    between atoms: _87  and  _90
REMARK   36  A    between atoms: _90  and  _91
REMARK   37  A    between atoms: _96  and  _97
REMARK   38  A    between atoms: _99  and  _101
REMARK   39  A    between atoms: _101  and  _102
REMARK   40  A    between atoms: _101  and  _104
REMARK   41  A    between atoms: _104  and  _105
REMARK   42  A    between atoms: _105  and  _106
REMARK   43  A    between atoms: _109  and  _111
REMARK   44  A    between atoms: _111  and  _112
REMARK   45  A    between atoms: _111  and  _114
REMARK   46  A    between atoms: _114  and  _115
REMARK   47  A    between atoms: _120  and  _122
REMARK   48  A    between atoms: _122  and  _123
REMARK   49  A    between atoms: _126  and  _128
REMARK   50  A    between atoms: _128  and  _129
REMARK   51  A    between atoms: _132  and  _134
REMARK   52  A    between atoms: _134  and  _135
REMARK   53  A    between atoms: _137  and  _139
REMARK   54  A    between atoms: _139  and  _140
REMARK   55  A    between atoms: _142  and  _144
REMARK   56  A    between atoms: _144  and  _145
REMARK   57  A    between atoms: _144  and  _147
REMARK   58  A    between atoms: _147  and  _148
REMARK   59  A    between atoms: _151  and  _153
REMARK   60  A    between atoms: _153  and  _154
REMARK   61  A    between atoms: _153  and  _156
REMARK   62  A    between atoms: _156  and  _157
REMARK   63  A    between atoms: _162  and  _163
REMARK   64  A    between atoms: _165  and  _167
REMARK   65  A    between atoms: _167  and  _168
REMARK   66  A    between atoms: _171  and  _173
REMARK   67  A    between atoms: _173  and  _174
REMARK   68  A    between atoms: _176  and  _178
REMARK   69  A    between atoms: _178  and  _179
REMARK   70  A    between atoms: _178  and  _181
REMARK   71  A    between atoms: _181  and  _182
REMARK   72  A    between atoms: _186  and  _187
REMARK   73  A    between atoms: _192  and  _194
REMARK   74  A    between atoms: _194  and  _195
REMARK   75  A    between atoms: _198  and  _199
REMARK   76  A    between atoms: _204  and  _206
REMARK   77  A    between atoms: _206  and  _207
REMARK   78  A    between atoms: _206  and  _209
REMARK   79  A    between atoms: _209  and  _210
REMARK   80  A    between atoms: _215  and  _217
REMARK   81  A    between atoms: _217  and  _218
REMARK   82  A    between atoms: _217  and  _220
REMARK   83  A    between atoms: _220  and  _221
REMARK   84  A    between atoms: _226  and  _227
REMARK   85  A    between atoms: _229  and  _231
REMARK   86  A    between atoms: _231  and  _232
REMARK   87  A    between atoms: _231  and  _234
REMARK   88  A    between atoms: _234  and  _235
REMARK   89  A    between atoms: _235  and  _236
REMARK   90  A    between atoms: _239  and  _241
REMARK   91  A    between atoms: _241  and  _242
REMARK   92  A    between atoms: _241  and  _244
REMARK   93  A    between atoms: _244  and  _245
REMARK   94  A    between atoms: _248  and  _250
REMARK   95  A    between atoms: _250  and  _251
REMARK   96  A    between atoms: _250  and  _253
REMARK   97  A    between atoms: _253  and  _254
REMARK   98  A    between atoms: _257  and  _259
REMARK   99  A    between atoms: _259  and  _260
REMARK  100  A    between atoms: _259  and  _262
REMARK  101  A    between atoms: _262  and  _263
REMARK  102  A    between atoms: _266  and  _268
REMARK  103  A    between atoms: _268  and  _269
REMARK  104  A    between atoms: _268  and  _271
REMARK  105  A    between atoms: _274  and  _276
REMARK  106  A    between atoms: _276  and  _277
REMARK  107  A    between atoms: _279  and  _281
REMARK  108  A    between atoms: _281  and  _282
REMARK  109  A    between atoms: _281  and  _284
REMARK  110  A    between atoms: _284  and  _285
REMARK  111  A    between atoms: _285  and  _286
REMARK  112  A    between atoms: _288  and  _290
REMARK  113  A    between atoms: _290  and  _291
REMARK  114  A    between atoms: _290  and  _293
REMARK  115  A    between atoms: _293  and  _294
REMARK  116  A    between atoms: _296  and  _298
REMARK  117  A    between atoms: _298  and  _299
REMARK  118  A    between atoms: _298  and  _301
REMARK  119  A    between atoms: _301  and  _302
REMARK  120  A    between atoms: _305  and  _307
REMARK  121  A    between atoms: _307  and  _308
REMARK  122  A    between atoms: _307  and  _310
REMARK  123  A    between atoms: _310  and  _311
REMARK  124  A    between atoms: _314  and  _316
REMARK  125  A    between atoms: _316  and  _317
REMARK  126  A    between atoms: _316  and  _319
REMARK  127  A    between atoms: _322  and  _324
REMARK  128  A    between atoms: _324  and  _325
REMARK  129  A    between atoms: _324  and  _327
REMARK  130  A    between atoms: _327  and  _328
REMARK  131  A    between atoms: _331  and  _333
REMARK  132  A    between atoms: _333  and  _334
REMARK  133  A    between atoms: _333  and  _336
REMARK  134  A    between atoms: _336  and  _337
REMARK  135  A    between atoms: _342  and  _344
REMARK  136  A    between atoms: _344  and  _345
REMARK  137  A    between atoms: _344  and  _347
REMARK  138  A    between atoms: _347  and  _348
REMARK  139  A    between atoms: _351  and  _353
REMARK  140  A    between atoms: _353  and  _354
REMARK  141  A    between atoms: _357  and  _359
REMARK  142  A    between atoms: _359  and  _360
REMARK  143  A    between atoms: _363  and  _365
REMARK  144  A    between atoms: _365  and  _366
REMARK  145  A    between atoms: _365  and  _368
REMARK  146  A    between atoms: _368  and  _369
REMARK  147  A    between atoms: _372  and  _374
REMARK  148  A    between atoms: _374  and  _375
REMARK  149  A    between atoms: _374  and  _377
REMARK  150  A    between atoms: _377  and  _378
REMARK  151  A    between atoms: _380  and  _382
REMARK  152  A    between atoms: _382  and  _383
REMARK  153  A    between atoms: _382  and  _385
REMARK  154  A    between atoms: _385  and  _386
REMARK  155  A    between atoms: _391  and  _393
REMARK  156  A    between atoms: _393  and  _394
REMARK  157  A    between atoms: _397  and  _399
REMARK  158  A    between atoms: _399  and  _400
REMARK  159  A    between atoms: _399  and  _402
REMARK  160  A    between atoms: _402  and  _403
REMARK  161  A    between atoms: _403  and  _404
REMARK  162  A    between atoms: _407  and  _409
REMARK  163  A    between atoms: _409  and  _410
REMARK  164  A    between atoms: _409  and  _412
REMARK  165  A    between atoms: _415  and  _417
REMARK  166  A    between atoms: _417  and  _418
REMARK  167  A    between atoms: _417  and  _420
REMARK  168  A    between atoms: _420  and  _421
REMARK  169  A    between atoms: _424  and  _426
REMARK  170  A    between atoms: _426  and  _427
REMARK  171  A    between atoms: _429  and  _431
REMARK  172  A    between atoms: _431  and  _432
REMARK  173  A    between atoms: _431  and  _434
REMARK  174  A    between atoms: _434  and  _435
REMARK  175  A    between atoms: _435  and  _436
REMARK  176  A    between atoms: _439  and  _441
REMARK  177  A    between atoms: _441  and  _442
REMARK  178  A    between atoms: _441  and  _444
REMARK  179  A    between atoms: _444  and  _445
REMARK  180  A    between atoms: _451  and  _453
REMARK  181  A    between atoms: _453  and  _454
REMARK  182  A    between atoms: _453  and  _456
REMARK                            x       y       z     vdW  Elec       q    Type
REMARK                         _______ _______ _______ _____ _____    ______ ____
ROOT
ATOM      1  CA  SER A   2      61.886  13.527  44.853  0.00  0.00    +0.178 C 
ENDROOT
BRANCH   1   4
ATOM      2  C   GLY A   1      63.957  14.720  45.280  0.00  0.00    +0.240 C 
ATOM      3  O   GLY A   1      64.574  13.662  45.417  0.00  0.00    -0.274 OA
ATOM      4  N   SER A   2      62.656  14.759  45.005  0.00  0.00    -0.295 N 
ATOM      5  H   SER A   2      62.181  15.678  44.897  0.00  0.00    +0.150 HD
BRANCH   2   6
ATOM      6  CA  GLY A   1      64.658  16.060  45.423  0.00  0.00    +0.169 C 
BRANCH   6   7
ATOM      7  N   GLY A   1      66.111  16.011  45.353  0.00  0.00    -0.236 NA
ATOM      8  H   GLY A   1      66.581  16.071  44.427  0.00  0.00    +0.142 HD
ENDBRANCH   6   7
ENDBRANCH   2   6
ENDBRANCH   1   4
BRANCH   1   9
ATOM      9  C   SER A   2      62.441  12.652  43.735  0.00  0.00    +0.243 C 
ATOM     10  N   GLY A   3      62.634  11.374  44.045  0.00  0.00    -0.296 N 
ATOM     11  H   GLY A   3      62.408  11.040  45.004  0.00  0.00    +0.150 HD
ATOM     12  O   SER A   2      62.689  13.126  42.623  0.00  0.00    -0.273 OA
BRANCH  10  13
ATOM     13  CA  GLY A   3      63.155  10.438  43.067  0.00  0.00    +0.163 C 
BRANCH  13  14
ATOM     14  C   GLY A   3      64.669  10.376  43.017  0.00  0.00    +0.229 C 
ATOM     15  O   GLY A   3      65.228   9.423  42.470  0.00  0.00    -0.286 OA
ENDBRANCH  13  14
ENDBRANCH  10  13
ENDBRANCH   1   9
BRANCH   1  16
ATOM     16  CB  SER A   2      60.418  13.844  44.571  0.00  0.00    +0.166 C 
BRANCH  16  17
ATOM     17  OG  SER A   2      59.812  14.479  45.687  0.00  0.00    -0.380 OA
ATOM     18  H   SER A   2      59.863  13.880  46.474  0.00  0.00    +0.211 HD
ENDBRANCH  16  17
ENDBRANCH   1  16
TORSDOF 8
REMARK  Name = ../refined-set-2016/1g2o/1g2o_pocket.pdb
REMARK  182 active torsions:
REMARK  status: ('A' for Active; 'I' for Inactive)
REMARK    1  A    between atoms: _1  and  _3
REMARK    2  A    between atoms: _3  and  _4
REMARK    3  A    between atoms: _6  and  _8
REMARK    4  A    between atoms: _8  and  _9
REMARK    5  A    between atoms: _8  and  _11
REMARK    6  A    between atoms: _11  and  _12
REMARK    7  A    between atoms: _14  and  _16
REMARK    8  A    between atoms: _16  and  _17
REMARK    9  A    between atoms: _19  and  _21
REMARK   10  A    between atoms: _21  and  _22
REMARK   11  A    between atoms: _25  and  _27
REMARK   12  A    between atoms: _27  and  _28
REMARK   13  A    between atoms: _31  and  _33
REMARK   14  A    between atoms: _33  and  _34
REMARK   15  A    between atoms: _33  and  _36
REMARK   16  A    between atoms: _36  and  _37
REMARK   17  A    between atoms: _42  and  _44
REMARK   18  A    between atoms: _44  and  _45
REMARK   19  A    between atoms: _44  and  _47
REMARK   20  A    between atoms: _47  and  _48
REMARK   21  A    between atoms: _48  and  _49
REMARK   22  A    between atoms: _49  and  _50
REMARK   23  A    between atoms: _59  and  _61
REMARK   24  A    between atoms: _61  and  _62
REMARK   25  A    between atoms: _61  and  _64
REMARK   26  A    between atoms: _64  and  _65
REMARK   27  A    between atoms: _68  and  _70
REMARK   28  A    between atoms: _70  and  _71
REMARK   29  A    between atoms: _70  and  _73
REMARK   30  A    between atoms: _73  and  _74
REMARK   31  A    between atoms: _79  and  _81
REMARK   32  A    between atoms: _81  and  _82
REMARK   33  A    between atoms: _85  and  _87
REMARK   34  A    between atoms: _87  and  _88
REMARK   35  A    between atoms: _87  and  _90
REMARK   36  A    between atoms: _90  and  _91
REMARK   37  A    between atoms: _96  and  _97
REMARK   38  A    between atoms: _99  and  _101
REMARK   39  A    between atoms: _101  and  _102
REMARK   40  A    between atoms: _101  and  _104
REMARK   41  A    between atoms: _104  and  _105
REMARK   42  A    between atoms: _105  and  _106
REMARK   43  A    between atoms: _109  and  _111
REMARK   44  A    between atoms: _111  and  _112
REMARK   45  A    between atoms: _111  and  _114
REMARK   46  A    between atoms: _114  and  _115
REMARK   47  A    between atoms: _120  and  _122
REMARK   48  A    between atoms: _122  and  _123
REMARK   49  A    between atoms: _126  and  _128
REMARK   50  A    between atoms: _128  and  _129
REMARK   51  A    between atoms: _132  and  _134
REMARK   52  A    between atoms: _134  and  _135
REMARK   53  A    between atoms: _137  and  _139
REMARK   54  A    between atoms: _139  and  _140
REMARK   55  A    between atoms: _142  and  _144
REMARK   56  A    between atoms: _144  and  _145
REMARK   57  A    between atoms: _144  and  _147
REMARK   58  A    between atoms: _147  and  _148
REMARK   59  A    between atoms: _151  and  _153
REMARK   60  A    between atoms: _153  and  _154
REMARK   61  A    between atoms: _153  and  _156
REMARK   62  A    between atoms: _156  and  _157
REMARK   63  A    between atoms: _162  and  _163
REMARK   64  A    between atoms: _165  and  _167
REMARK   65  A    between atoms: _167  and  _168
REMARK   66  A    between atoms: _171  and  _173
REMARK   67  A    between atoms: _173  and  _174
REMARK   68  A    between atoms: _176  and  _178
REMARK   69  A    between atoms: _178  and  _179
REMARK   70  A    between atoms: _178  and  _181
REMARK   71  A    between atoms: _181  and  _182
REMARK   72  A    between atoms: _186  and  _187
REMARK   73  A    between atoms: _192  and  _194
REMARK   74  A    between atoms: _194  and  _195
REMARK   75  A    between atoms: _198  and  _199
REMARK   76  A    between atoms: _204  and  _206
REMARK   77  A    between atoms: _206  and  _207
REMARK   78  A    between atoms: _206  and  _209
REMARK   79  A    between atoms: _209  and  _210
REMARK   80  A    between atoms: _215  and  _217
REMARK   81  A    between atoms: _217  and  _218
REMARK   82  A    between atoms: _217  and  _220
REMARK   83  A    between atoms: _220  and  _221
REMARK   84  A    between atoms: _226  and  _227
REMARK   85  A    between atoms: _229  and  _231
REMARK   86  A    between atoms: _231  and  _232
REMARK   87  A    between atoms: _231  and  _234
REMARK   88  A    between atoms: _234  and  _235
REMARK   89  A    between atoms: _235  and  _236
REMARK   90  A    between atoms: _239  and  _241
REMARK   91  A    between atoms: _241  and  _242
REMARK   92  A    between atoms: _241  and  _244
REMARK   93  A    between atoms: _244  and  _245
REMARK   94  A    between atoms: _248  and  _250
REMARK   95  A    between atoms: _250  and  _251
REMARK   96  A    between atoms: _250  and  _253
REMARK   97  A    between atoms: _253  and  _254
REMARK   98  A    between atoms: _257  and  _259
REMARK   99  A    between atoms: _259  and  _260
REMARK  100  A    between atoms: _259  and  _262
REMARK  101  A    between atoms: _262  and  _263
REMARK  102  A    between atoms: _266  and  _268
REMARK  103  A    between atoms: _268  and  _269
REMARK  104  A    between atoms: _268  and  _271
REMARK  105  A    between atoms: _274  and  _276
REMARK  106  A    between atoms: _276  and  _277
REMARK  107  A    between atoms: _279  and  _281
REMARK  108  A    between atoms: _281  and  _282
REMARK  109  A    between atoms: _281  and  _284
REMARK  110  A    between atoms: _284  and  _285
REMARK  111  A    between atoms: _285  and  _286
REMARK  112  A    between atoms: _288  and  _290
REMARK  113  A    between atoms: _290  and  _291
REMARK  114  A    between atoms: _290  and  _293
REMARK  115  A    between atoms: _293  and  _294
REMARK  116  A    between atoms: _296  and  _298
REMARK  117  A    between atoms: _298  and  _299
REMARK  118  A    between atoms: _298  and  _301
REMARK  119  A    between atoms: _301  and  _302
REMARK  120  A    between atoms: _305  and  _307
REMARK  121  A    between atoms: _307  and  _308
REMARK  122  A    between atoms: _307  and  _310
REMARK  123  A    between atoms: _310  and  _311
REMARK  124  A    between atoms: _314  and  _316
REMARK  125  A    between atoms: _316  and  _317
REMARK  126  A    between atoms: _316  and  _319
REMARK  127  A    between atoms: _322  and  _324
REMARK  128  A    between atoms: _324  and  _325
REMARK  129  A    between atoms: _324  and  _327
REMARK  130  A    between atoms: _327  and  _328
REMARK  131  A    between atoms: _331  and  _333
REMARK  132  A    between atoms: _333  and  _334
REMARK  133  A    between atoms: _333  and  _336
REMARK  134  A    between atoms: _336  and  _337
REMARK  135  A    between atoms: _342  and  _344
REMARK  136  A    between atoms: _344  and  _345
REMARK  137  A    between atoms: _344  and  _347
REMARK  138  A    between atoms: _347  and  _348
REMARK  139  A    between atoms: _351  and  _353
REMARK  140  A    between atoms: _353  and  _354
REMARK  141  A    between atoms: _357  and  _359
REMARK  142  A    between atoms: _359  and  _360
REMARK  143  A    between atoms: _363  and  _365
REMARK  144  A    between atoms: _365  and  _366
REMARK  145  A    between atoms: _365  and  _368
REMARK  146  A    between atoms: _368  and  _369
REMARK  147  A    between atoms: _372  and  _374
REMARK  148  A    between atoms: _374  and  _375
REMARK  149  A    between atoms: _374  and  _377
REMARK  150  A    between atoms: _377  and  _378
REMARK  151  A    between atoms: _380  and  _382
REMARK  152  A    between atoms: _382  and  _383
REMARK  153  A    between atoms: _382  and  _385
REMARK  154  A    between atoms: _385  and  _386
REMARK  155  A    between atoms: _391  and  _393
REMARK  156  A    between atoms: _393  and  _394
REMARK  157  A    between atoms: _397  and  _399
REMARK  158  A    between atoms: _399  and  _400
REMARK  159  A    between atoms: _399  and  _402
REMARK  160  A    between atoms: _402  and  _403
REMARK  161  A    between atoms: _403  and  _404
REMARK  162  A    between atoms: _407  and  _409
REMARK  163  A    between atoms: _409  and  _410
REMARK  164  A    between atoms: _409  and  _412
REMARK  165  A    between atoms: _415  and  _417
REMARK  166  A    between atoms: _417  and  _418
REMARK  167  A    between atoms: _417  and  _420
REMARK  168  A    between atoms: _420  and  _421
REMARK  169  A    between atoms: _424  and  _426
REMARK  170  A    between atoms: _426  and  _427
REMARK  171  A    between atoms: _429  and  _431
REMARK  172  A    between atoms: _431  and  _432
REMARK  173  A    between atoms: _431  and  _434
REMARK  174  A    between atoms: _434  and  _435
REMARK  175  A    between atoms: _435  and  _436
REMARK  176  A    between atoms: _439  and  _441
REMARK  177  A    between atoms: _441  and  _442
REMARK  178  A    between atoms: _441  and  _444
REMARK  179  A    between atoms: _444  and  _445
REMARK  180  A    between atoms: _451  and  _453
REMARK  181  A    between atoms: _453  and  _454
REMARK  182  A    between atoms: _453  and  _456
REMARK                            x       y       z     vdW  Elec       q    Type
REMARK                         _______ _______ _______ _____ _____    ______ ____
ROOT
ATOM      1  C   ALA A   1      58.284  12.378  51.613  0.00  0.00    +0.238 C 
ATOM      2  O   ALA A   1      59.487  12.220  51.829  0.00  0.00    -0.274 OA
ATOM      3  N   ALA A   2      57.516  11.436  51.075  0.00  0.00    -0.298 N 
ATOM      4  H   ALA A   2      56.503  11.622  50.932  0.00  0.00    +0.150 HD
ENDROOT
BRANCH   1   5
ATOM      5  CA  ALA A   1      57.590  13.690  51.963  0.00  0.00    +0.145 C 
ATOM      6  CB  ALA A   1      57.744  14.680  50.810  0.00  0.00    +0.028 C 
BRANCH   5   7
ATOM      7  N   ALA A   1      58.107  14.268  53.200  0.00  0.00    -0.238 NA
ATOM      8  H   ALA A   1      58.638  15.162  53.167  0.00  0.00    +0.142 HD
ENDBRANCH   5   7
ENDBRANCH   1   5
BRANCH   3   9
ATOM      9  CA  ALA A   2      58.070  10.148  50.682  0.00  0.00    +0.137 C 
ATOM     10  CB  ALA A   2      56.986   9.282  50.059  0.00  0.00    +0.030 C 
BRANCH   9  11
ATOM     11  C   ALA A   2      59.197  10.369  49.678  0.00  0.00    +0.227 C 
ATOM     12  O   ALA A   2      59.030  11.108  48.708  0.00  0.00    -0.286 OA
ENDBRANCH   9  11
ENDBRANCH   3   9
TORSDOF 4
REMARK  Name = ../refined-set-2016/1g2o/1g2o_pocket.pdb
REMARK  182 active torsions:
REMARK  status: ('A' for Active; 'I' for Inactive)
REMARK    1  A    between atoms: _1  and  _3
REMARK    2  A    between atoms: _3  and  _4
REMARK    3  A    between atoms: _6  and  _8
REMARK    4  A    between atoms: _8  and  _9
REMARK    5  A    between atoms: _8  and  _11
REMARK    6  A    between atoms: _11  and  _12
REMARK    7  A    between atoms: _14  and  _16
REMARK    8  A    between atoms: _16  and  _17
REMARK    9  A    between atoms: _19  and  _21
REMARK   10  A    between atoms: _21  and  _22
REMARK   11  A    between atoms: _25  and  _27
REMARK   12  A    between atoms: _27  and  _28
REMARK   13  A    between atoms: _31  and  _33
REMARK   14  A    between atoms: _33  and  _34
REMARK   15  A    between atoms: _33  and  _36
REMARK   16  A    between atoms: _36  and  _37
REMARK   17  A    between atoms: _42  and  _44
REMARK   18  A    between atoms: _44  and  _45
REMARK   19  A    between atoms: _44  and  _47
REMARK   20  A    between atoms: _47  and  _48
REMARK   21  A    between atoms: _48  and  _49
REMARK   22  A    between atoms: _49  and  _50
REMARK   23  A    between atoms: _59  and  _61
REMARK   24  A    between atoms: _61  and  _62
REMARK   25  A    between atoms: _61  and  _64
REMARK   26  A    between atoms: _64  and  _65
REMARK   27  A    between atoms: _68  and  _70
REMARK   28  A    between atoms: _70  and  _71
REMARK   29  A    between atoms: _70  and  _73
REMARK   30  A    between atoms: _73  and  _74
REMARK   31  A    between atoms: _79  and  _81
REMARK   32  A    between atoms: _81  and  _82
REMARK   33  A    between atoms: _85  and  _87
REMARK   34  A    between atoms: _87  and  _88
REMARK   35  A    between atoms: _87  and  _90
REMARK   36  A    between atoms: _90  and  _91
REMARK   37  A    between atoms: _96  and  _97
REMARK   38  A    between atoms: _99  and  _101
REMARK   39  A    between atoms: _101  and  _102
REMARK   40  A    between atoms: _101  and  _104
REMARK   41  A    between atoms: _104  and  _105
REMARK   42  A    between atoms: _105  and  _106
REMARK   43  A    between atoms: _109  and  _111
REMARK   44  A    between atoms: _111  and  _112
REMARK   45  A    between atoms: _111  and  _114
REMARK   46  A    between atoms: _114  and  _115
REMARK   47  A    between atoms: _120  and  _122
REMARK   48  A    between atoms: _122  and  _123
REMARK   49  A    between atoms: _126  and  _128
REMARK   50  A    between atoms: _128  and  _129
REMARK   51  A    between atoms: _132  and  _134
REMARK   52  A    between atoms: _134  and  _135
REMARK   53  A    between atoms: _137  and  _139
REMARK   54  A    between atoms: _139  and  _140
REMARK   55  A    between atoms: _142  and  _144
REMARK   56  A    between atoms: _144  and  _145
REMARK   57  A    between atoms: _144  and  _147
REMARK   58  A    between atoms: _147  and  _148
REMARK   59  A    between atoms: _151  and  _153
REMARK   60  A    between atoms: _153  and  _154
REMARK   61  A    between atoms: _153  and  _156
REMARK   62  A    between atoms: _156  and  _157
REMARK   63  A    between atoms: _162  and  _163
REMARK   64  A    between atoms: _165  and  _167
REMARK   65  A    between atoms: _167  and  _168
REMARK   66  A    between atoms: _171  and  _173
REMARK   67  A    between atoms: _173  and  _174
REMARK   68  A    between atoms: _176  and  _178
REMARK   69  A    between atoms: _178  and  _179
REMARK   70  A    between atoms: _178  and  _181
REMARK   71  A    between atoms: _181  and  _182
REMARK   72  A    between atoms: _186  and  _187
REMARK   73  A    between atoms: _192  and  _194
REMARK   74  A    between atoms: _194  and  _195
REMARK   75  A    between atoms: _198  and  _199
REMARK   76  A    between atoms: _204  and  _206
REMARK   77  A    between atoms: _206  and  _207
REMARK   78  A    between atoms: _206  and  _209
REMARK   79  A    between atoms: _209  and  _210
REMARK   80  A    between atoms: _215  and  _217
REMARK   81  A    between atoms: _217  and  _218
REMARK   82  A    between atoms: _217  and  _220
REMARK   83  A    between atoms: _220  and  _221
REMARK   84  A    between atoms: _226  and  _227
REMARK   85  A    between atoms: _229  and  _231
REMARK   86  A    between atoms: _231  and  _232
REMARK   87  A    between atoms: _231  and  _234
REMARK   88  A    between atoms: _234  and  _235
REMARK   89  A    between atoms: _235  and  _236
REMARK   90  A    between atoms: _239  and  _241
REMARK   91  A    between atoms: _241  and  _242
REMARK   92  A    between atoms: _241  and  _244
REMARK   93  A    between atoms: _244  and  _245
REMARK   94  A    between atoms: _248  and  _250
REMARK   95  A    between atoms: _250  and  _251
REMARK   96  A    between atoms: _250  and  _253
REMARK   97  A    between atoms: _253  and  _254
REMARK   98  A    between atoms: _257  and  _259
REMARK   99  A    between atoms: _259  and  _260
REMARK  100  A    between atoms: _259  and  _262
REMARK  101  A    between atoms: _262  and  _263
REMARK  102  A    between atoms: _266  and  _268
REMARK  103  A    between atoms: _268  and  _269
REMARK  104  A    between atoms: _268  and  _271
REMARK  105  A    between atoms: _274  and  _276
REMARK  106  A    between atoms: _276  and  _277
REMARK  107  A    between atoms: _279  and  _281
REMARK  108  A    between atoms: _281  and  _282
REMARK  109  A    between atoms: _281  and  _284
REMARK  110  A    between atoms: _284  and  _285
REMARK  111  A    between atoms: _285  and  _286
REMARK  112  A    between atoms: _288  and  _290
REMARK  113  A    between atoms: _290  and  _291
REMARK  114  A    between atoms: _290  and  _293
REMARK  115  A    between atoms: _293  and  _294
REMARK  116  A    between atoms: _296  and  _298
REMARK  117  A    between atoms: _298  and  _299
REMARK  118  A    between atoms: _298  and  _301
REMARK  119  A    between atoms: _301  and  _302
REMARK  120  A    between atoms: _305  and  _307
REMARK  121  A    between atoms: _307  and  _308
REMARK  122  A    between atoms: _307  and  _310
REMARK  123  A    between atoms: _310  and  _311
REMARK  124  A    between atoms: _314  and  _316
REMARK  125  A    between atoms: _316  and  _317
REMARK  126  A    between atoms: _316  and  _319
REMARK  127  A    between atoms: _322  and  _324
REMARK  128  A    between atoms: _324  and  _325
REMARK  129  A    between atoms: _324  and  _327
REMARK  130  A    between atoms: _327  and  _328
REMARK  131  A    between atoms: _331  and  _333
REMARK  132  A    between atoms: _333  and  _334
REMARK  133  A    between atoms: _333  and  _336
REMARK  134  A    between atoms: _336  and  _337
REMARK  135  A    between atoms: _342  and  _344
REMARK  136  A    between atoms: _344  and  _345
REMARK  137  A    between atoms: _344  and  _347
REMARK  138  A    between atoms: _347  and  _348
REMARK  139  A    between atoms: _351  and  _353
REMARK  140  A    between atoms: _353  and  _354
REMARK  141  A    between atoms: _357  and  _359
REMARK  142  A    between atoms: _359  and  _360
REMARK  143  A    between atoms: _363  and  _365
REMARK  144  A    between atoms: _365  and  _366
REMARK  145  A    between atoms: _365  and  _368
REMARK  146  A    between atoms: _368  and  _369
REMARK  147  A    between atoms: _372  and  _374
REMARK  148  A    between atoms: _374  and  _375
REMARK  149  A    between atoms: _374  and  _377
REMARK  150  A    between atoms: _377  and  _378
REMARK  151  A    between atoms: _380  and  _382
REMARK  152  A    between atoms: _382  and  _383
REMARK  153  A    between atoms: _382  and  _385
REMARK  154  A    between atoms: _385  and  _386
REMARK  155  A    between atoms: _391  and  _393
REMARK  156  A    between atoms: _393  and  _394
REMARK  157  A    between atoms: _397  and  _399
REMARK  158  A    between atoms: _399  and  _400
REMARK  159  A    between atoms: _399  and  _402
REMARK  160  A    between atoms: _402  and  _403
REMARK  161  A    between atoms: _403  and  _404
REMARK  162  A    between atoms: _407  and  _409
REMARK  163  A    between atoms: _409  and  _410
REMARK  164  A    between atoms: _409  and  _412
REMARK  165  A    between atoms: _415  and  _417
REMARK  166  A    between atoms: _417  and  _418
REMARK  167  A    between atoms: _417  and  _420
REMARK  168  A    between atoms: _420  and  _421
REMARK  169  A    between atoms: _424  and  _426
REMARK  170  A    between atoms: _426  and  _427
REMARK  171  A    between atoms: _429  and  _431
REMARK  172  A    between atoms: _431  and  _432
REMARK  173  A    between atoms: _431  and  _434
REMARK  174  A    between atoms: _434  and  _435
REMARK  175  A    between atoms: _435  and  _436
REMARK  176  A    between atoms: _439  and  _441
REMARK  177  A    between atoms: _441  and  _442
REMARK  178  A    between atoms: _441  and  _444
REMARK  179  A    between atoms: _444  and  _445
REMARK  180  A    between atoms: _451  and  _453
REMARK  181  A    between atoms: _453  and  _454
REMARK  182  A    between atoms: _453  and  _456
REMARK                            x       y       z     vdW  Elec       q    Type
REMARK                         _______ _______ _______ _____ _____    ______ ____
ROOT
ATOM      1  CB  HIS A   1      62.557  13.784  51.361  0.00  0.00    +0.072 C 
ENDROOT
BRANCH   1   2
ATOM      2  CG  HIS A   1      62.048  14.409  50.098  0.00  0.00    +0.082 A 
ATOM      3  ND1 HIS A   1      62.545  15.594  49.599  0.00  0.00    -0.227 NA
ATOM      4  CE1 HIS A   1      61.973  15.856  48.437  0.00  0.00    +0.199 A 
ATOM      5  NE2 HIS A   1      61.117  14.885  48.166  0.00  0.00    -0.221 NA
ATOM      6  CD2 HIS A   1      61.142  13.970  49.191  0.00  0.00    +0.115 A 
ENDBRANCH   1   2
BRANCH   1   7
ATOM      7  CA  HIS A   1      63.271  12.450  51.128  0.00  0.00    +0.139 C 
BRANCH   7   8
ATOM      8  N   HIS A   1      62.320  11.477  50.605  0.00  0.00    -0.239 NA
ATOM      9  H   HIS A   1      61.474  11.243  51.162  0.00  0.00    +0.142 HD
ENDBRANCH   7   8
BRANCH   7  10
ATOM     10  C   HIS A   1      63.854  11.882  52.420  0.00  0.00    +0.224 C 
ATOM     11  O   HIS A   1      63.164  11.782  53.431  0.00  0.00    -0.287 OA
ENDBRANCH   7  10
ENDBRANCH   1   7
TORSDOF 4
REMARK  Name = ../refined-set-2016/1g2o/1g2o_pocket.pdb
REMARK  182 active torsions:
REMARK  status: ('A' for Active; 'I' for Inactive)
REMARK    1  A    between atoms: _1  and  _3
REMARK    2  A    between atoms: _3  and  _4
REMARK    3  A    between atoms: _6  and  _8
REMARK    4  A    between atoms: _8  and  _9
REMARK    5  A    between atoms: _8  and  _11
REMARK    6  A    between atoms: _11  and  _12
REMARK    7  A    between atoms: _14  and  _16
REMARK    8  A    between atoms: _16  and  _17
REMARK    9  A    between atoms: _19  and  _21
REMARK   10  A    between atoms: _21  and  _22
REMARK   11  A    between atoms: _25  and  _27
REMARK   12  A    between atoms: _27  and  _28
REMARK   13  A    between atoms: _31  and  _33
REMARK   14  A    between atoms: _33  and  _34
REMARK   15  A    between atoms: _33  and  _36
REMARK   16  A    between atoms: _36  and  _37
REMARK   17  A    between atoms: _42  and  _44
REMARK   18  A    between atoms: _44  and  _45
REMARK   19  A    between atoms: _44  and  _47
REMARK   20  A    between atoms: _47  and  _48
REMARK   21  A    between atoms: _48  and  _49
REMARK   22  A    between atoms: _49  and  _50
REMARK   23  A    between atoms: _59  and  _61
REMARK   24  A    between atoms: _61  and  _62
REMARK   25  A    between atoms: _61  and  _64
REMARK   26  A    between atoms: _64  and  _65
REMARK   27  A    between atoms: _68  and  _70
REMARK   28  A    between atoms: _70  and  _71
REMARK   29  A    between atoms: _70  and  _73
REMARK   30  A    between atoms: _73  and  _74
REMARK   31  A    between atoms: _79  and  _81
REMARK   32  A    between atoms: _81  and  _82
REMARK   33  A    between atoms: _85  and  _87
REMARK   34  A    between atoms: _87  and  _88
REMARK   35  A    between atoms: _87  and  _90
REMARK   36  A    between atoms: _90  and  _91
REMARK   37  A    between atoms: _96  and  _97
REMARK   38  A    between atoms: _99  and  _101
REMARK   39  A    between atoms: _101  and  _102
REMARK   40  A    between atoms: _101  and  _104
REMARK   41  A    between atoms: _104  and  _105
REMARK   42  A    between atoms: _105  and  _106
REMARK   43  A    between atoms: _109  and  _111
REMARK   44  A    between atoms: _111  and  _112
REMARK   45  A    between atoms: _111  and  _114
REMARK   46  A    between atoms: _114  and  _115
REMARK   47  A    between atoms: _120  and  _122
REMARK   48  A    between atoms: _122  and  _123
REMARK   49  A    between atoms: _126  and  _128
REMARK   50  A    between atoms: _128  and  _129
REMARK   51  A    between atoms: _132  and  _134
REMARK   52  A    between atoms: _134  and  _135
REMARK   53  A    between atoms: _137  and  _139
REMARK   54  A    between atoms: _139  and  _140
REMARK   55  A    between atoms: _142  and  _144
REMARK   56  A    between atoms: _144  and  _145
REMARK   57  A    between atoms: _144  and  _147
REMARK   58  A    between atoms: _147  and  _148
REMARK   59  A    between atoms: _151  and  _153
REMARK   60  A    between atoms: _153  and  _154
REMARK   61  A    between atoms: _153  and  _156
REMARK   62  A    between atoms: _156  and  _157
REMARK   63  A    between atoms: _162  and  _163
REMARK   64  A    between atoms: _165  and  _167
REMARK   65  A    between atoms: _167  and  _168
REMARK   66  A    between atoms: _171  and  _173
REMARK   67  A    between atoms: _173  and  _174
REMARK   68  A    between atoms: _176  and  _178
REMARK   69  A    between atoms: _178  and  _179
REMARK   70  A    between atoms: _178  and  _181
REMARK   71  A    between atoms: _181  and  _182
REMARK   72  A    between atoms: _186  and  _187
REMARK   73  A    between atoms: _192  and  _194
REMARK   74  A    between atoms: _194  and  _195
REMARK   75  A    between atoms: _198  and  _199
REMARK   76  A    between atoms: _204  and  _206
REMARK   77  A    between atoms: _206  and  _207
REMARK   78  A    between atoms: _206  and  _209
REMARK   79  A    between atoms: _209  and  _210
REMARK   80  A    between atoms: _215  and  _217
REMARK   81  A    between atoms: _217  and  _218
REMARK   82  A    between atoms: _217  and  _220
REMARK   83  A    between atoms: _220  and  _221
REMARK   84  A    between atoms: _226  and  _227
REMARK   85  A    between atoms: _229  and  _231
REMARK   86  A    between atoms: _231  and  _232
REMARK   87  A    between atoms: _231  and  _234
REMARK   88  A    between atoms: _234  and  _235
REMARK   89  A    between atoms: _235  and  _236
REMARK   90  A    between atoms: _239  and  _241
REMARK   91  A    between atoms: _241  and  _242
REMARK   92  A    between atoms: _241  and  _244
REMARK   93  A    between atoms: _244  and  _245
REMARK   94  A    between atoms: _248  and  _250
REMARK   95  A    between atoms: _250  and  _251
REMARK   96  A    between atoms: _250  and  _253
REMARK   97  A    between atoms: _253  and  _254
REMARK   98  A    between atoms: _257  and  _259
REMARK   99  A    between atoms: _259  and  _260
REMARK  100  A    between atoms: _259  and  _262
REMARK  101  A    between atoms: _262  and  _263
REMARK  102  A    between atoms: _266  and  _268
REMARK  103  A    between atoms: _268  and  _269
REMARK  104  A    between atoms: _268  and  _271
REMARK  105  A    between atoms: _274  and  _276
REMARK  106  A    between atoms: _276  and  _277
REMARK  107  A    between atoms: _279  and  _281
REMARK  108  A    between atoms: _281  and  _282
REMARK  109  A    between atoms: _281  and  _284
REMARK  110  A    between atoms: _284  and  _285
REMARK  111  A    between atoms: _285  and  _286
REMARK  112  A    between atoms: _288  and  _290
REMARK  113  A    between atoms: _290  and  _291
REMARK  114  A    between atoms: _290  and  _293
REMARK  115  A    between atoms: _293  and  _294
REMARK  116  A    between atoms: _296  and  _298
REMARK  117  A    between atoms: _298  and  _299
REMARK  118  A    between atoms: _298  and  _301
REMARK  119  A    between atoms: _301  and  _302
REMARK  120  A    between atoms: _305  and  _307
REMARK  121  A    between atoms: _307  and  _308
REMARK  122  A    between atoms: _307  and  _310
REMARK  123  A    between atoms: _310  and  _311
REMARK  124  A    between atoms: _314  and  _316
REMARK  125  A    between atoms: _316  and  _317
REMARK  126  A    between atoms: _316  and  _319
REMARK  127  A    between atoms: _322  and  _324
REMARK  128  A    between atoms: _324  and  _325
REMARK  129  A    between atoms: _324  and  _327
REMARK  130  A    between atoms: _327  and  _328
REMARK  131  A    between atoms: _331  and  _333
REMARK  132  A    between atoms: _333  and  _334
REMARK  133  A    between atoms: _333  and  _336
REMARK  134  A    between atoms: _336  and  _337
REMARK  135  A    between atoms: _342  and  _344
REMARK  136  A    between atoms: _344  and  _345
REMARK  137  A    between atoms: _344  and  _347
REMARK  138  A    between atoms: _347  and  _348
REMARK  139  A    between atoms: _351  and  _353
REMARK  140  A    between atoms: _353  and  _354
REMARK  141  A    between atoms: _357  and  _359
REMARK  142  A    between atoms: _359  and  _360
REMARK  143  A    between atoms: _363  and  _365
REMARK  144  A    between atoms: _365  and  _366
REMARK  145  A    between atoms: _365  and  _368
REMARK  146  A    between atoms: _368  and  _369
REMARK  147  A    between atoms: _372  and  _374
REMARK  148  A    between atoms: _374  and  _375
REMARK  149  A    between atoms: _374  and  _377
REMARK  150  A    between atoms: _377  and  _378
REMARK  151  A    between atoms: _380  and  _382
REMARK  152  A    between atoms: _382  and  _383
REMARK  153  A    between atoms: _382  and  _385
REMARK  154  A    between atoms: _385  and  _386
REMARK  155  A    between atoms: _391  and  _393
REMARK  156  A    between atoms: _393  and  _394
REMARK  157  A    between atoms: _397  and  _399
REMARK  158  A    between atoms: _399  and  _400
REMARK  159  A    between atoms: _399  and  _402
REMARK  160  A    between atoms: _402  and  _403
REMARK  161  A    between atoms: _403  and  _404
REMARK  162  A    between atoms: _407  and  _409
REMARK  163  A    between atoms: _409  and  _410
REMARK  164  A    between atoms: _409  and  _412
REMARK  165  A    between atoms: _415  and  _417
REMARK  166  A    between atoms: _417  and  _418
REMARK  167  A    between atoms: _417  and  _420
REMARK  168  A    between atoms: _420  and  _421
REMARK  169  A    between atoms: _424  and  _426
REMARK  170  A    between atoms: _426  and  _427
REMARK  171  A    between atoms: _429  and  _431
REMARK  172  A    between atoms: _431  and  _432
REMARK  173  A    between atoms: _431  and  _434
REMARK  174  A    between atoms: _434  and  _435
REMARK  175  A    between atoms: _435  and  _436
REMARK  176  A    between atoms: _439  and  _441
REMARK  177  A    between atoms: _441  and  _442
REMARK  178  A    between atoms: _441  and  _444
REMARK  179  A    between atoms: _444  and  _445
REMARK  180  A    between atoms: _451  and  _453
REMARK  181  A    between atoms: _453  and  _454
REMARK  182  A    between atoms: _453  and  _456
REMARK                            x       y       z     vdW  Elec       q    Type
REMARK                         _______ _______ _______ _____ _____    ______ ____
ROOT
ATOM      1  CA  HIS A   3      58.140  22.224  50.677  0.00  0.00    +0.155 C 
ENDROOT
BRANCH   1   3
ATOM      2  C   ILE A   2      60.164  21.334  51.690  0.00  0.00    +0.241 C 
ATOM      3  N   HIS A   3      58.840  21.438  51.694  0.00  0.00    -0.297 N 
ATOM      4  H   HIS A   3      58.291  20.953  52.432  0.00  0.00    +0.150 HD
ATOM      5  O   ILE A   2      60.877  21.896  50.850  0.00  0.00    -0.273 OA
BRANCH   2   6
ATOM      6  CA  ILE A   2      60.791  20.453  52.767  0.00  0.00    +0.148 C 
BRANCH   6   8
ATOM      7  C   ARG A   1      62.509  19.016  51.867  0.00  0.00    +0.238 C 
ATOM      8  N   ILE A   2      62.151  20.215  52.316  0.00  0.00    -0.297 N 
ATOM      9  H   ILE A   2      62.848  20.986  52.344  0.00  0.00    +0.150 HD
ATOM     10  O   ARG A   1      61.758  18.038  51.901  0.00  0.00    -0.274 OA
BRANCH   7  11
ATOM     11  CA  ARG A   1      63.929  18.895  51.323  0.00  0.00    +0.145 C 
BRANCH  11  12
ATOM     12  N   ARG A   1      64.259  17.495  51.070  0.00  0.00    -0.238 NA
ATOM     13  H   ARG A   1      63.518  16.860  50.711  0.00  0.00    +0.142 HD
ENDBRANCH  11  12
BRANCH  11  14
ATOM     14  CB  ARG A   1      64.018  19.709  50.018  0.00  0.00    +0.030 C 
BRANCH  14  15
ATOM     15  CG  ARG A   1      63.002  19.276  48.937  0.00  0.00    +0.045 C 
BRANCH  15  16
ATOM     16  CD  ARG A   1      62.633  20.411  47.975  0.00  0.00    +0.174 C 
BRANCH  16  17
ATOM     17  NE  ARG A   1      63.777  20.932  47.228  0.00  0.00    -0.265 N 
ATOM     18  HE  ARG A   1      64.264  21.766  47.614  0.00  0.00    +0.259 HD
ATOM     19  CZ  ARG A   1      64.241  20.419  46.091  0.00  0.00    +0.342 C 
ATOM     20  NH2 ARG A   1      63.663  19.357  45.540  0.00  0.00    -0.292 N 
ATOM     21 HH21 ARG A   1      62.839  18.918  45.997  0.00  0.00    +0.255 HD
ATOM     22 HH22 ARG A   1      64.035  18.965  44.651  0.00  0.00    +0.255 HD
ATOM     23  NH1 ARG A   1      65.292  20.972  45.502  0.00  0.00    -0.292 N 
ATOM     24 HH11 ARG A   1      65.750  21.803  45.929  0.00  0.00    +0.255 HD
ATOM     25 HH12 ARG A   1      65.659  20.575  44.613  0.00  0.00    +0.255 HD
ENDBRANCH  16  17
ENDBRANCH  15  16
ENDBRANCH  14  15
ENDBRANCH  11  14
ENDBRANCH   7  11
ENDBRANCH   6   8
BRANCH   6  26
ATOM     26  CB  ILE A   2      60.723  21.142  54.157  0.00  0.00    +0.027 C 
ATOM     27  CG2 ILE A   2      61.341  20.222  55.212  0.00  0.00    +0.002 C 
BRANCH  26  28
ATOM     28  CG1 ILE A   2      61.418  22.502  54.130  0.00  0.00    +0.002 C 
ATOM     29  CD1 ILE A   2      61.241  23.281  55.423  0.00  0.00    +0.000 C 
ENDBRANCH  26  28
ENDBRANCH   6  26
ENDBRANCH   2   6
ENDBRANCH   1   3
BRANCH   1  30
ATOM     30  C   HIS A   3      57.103  23.155  51.282  0.00  0.00    +0.241 C 
ATOM     31  O   HIS A   3      56.610  22.915  52.383  0.00  0.00    -0.273 OA
ATOM     32  N   ALA A   4      56.753  24.204  50.544  0.00  0.00    -0.297 N 
ATOM     33  H   ALA A   4      57.198  24.349  49.615  0.00  0.00    +0.150 HD
BRANCH  32  34
ATOM     34  CA  ALA A   4      55.755  25.153  51.018  0.00  0.00    +0.149 C 
ATOM     35  CB  ALA A   4      55.594  26.299  50.024  0.00  0.00    +0.031 C 
BRANCH  34  36
ATOM     36  C   ALA A   4      54.415  24.471  51.235  0.00  0.00    +0.241 C 
ATOM     37  O   ALA A   4      53.672  24.854  52.133  0.00  0.00    -0.273 OA
ATOM     38  N   TYR A   5      54.099  23.461  50.427  0.00  0.00    -0.297 N 
ATOM     39  H   TYR A   5      54.764  23.155  49.688  0.00  0.00    +0.150 HD
BRANCH  38  40
ATOM     40  CA  TYR A   5      52.815  22.786  50.583  0.00  0.00    +0.153 C 
BRANCH  40  41
ATOM     41  C   TYR A   5      52.673  22.050  51.913  0.00  0.00    +0.241 C 
ATOM     42  N   GLU A   6      53.774  21.924  52.648  0.00  0.00    -0.298 N 
ATOM     43  H   GLU A   6      54.672  22.305  52.288  0.00  0.00    +0.150 HD
ATOM     44  O   TYR A   5      51.579  21.615  52.269  0.00  0.00    -0.273 OA
BRANCH  42  45
ATOM     45  CA  GLU A   6      53.751  21.264  53.946  0.00  0.00    +0.137 C 
BRANCH  45  46
ATOM     46  C   GLU A   6      53.283  22.233  55.034  0.00  0.00    +0.227 C 
ATOM     47  O   GLU A   6      53.101  21.844  56.198  0.00  0.00    -0.286 OA
ENDBRANCH  45  46
BRANCH  45  48
ATOM     48  CB  GLU A   6      55.137  20.692  54.259  0.00  0.00    +0.039 C 
BRANCH  48  49
ATOM     49  CG  GLU A   6      55.444  19.468  53.411  0.00  0.00    +0.116 C 
BRANCH  49  50
ATOM     50  CD  GLU A   6      56.922  19.177  53.273  0.00  0.00    +0.365 C 
ATOM     51  OE2 GLU A   6      57.735  19.821  53.964  0.00  0.00    -0.246 OA
ATOM     52  OE1 GLU A   6      57.268  18.294  52.465  0.00  0.00    -0.246 OA
ENDBRANCH  49  50
ENDBRANCH  48  49
ENDBRANCH  45  48
ENDBRANCH  42  45
ENDBRANCH  40  41
BRANCH  40  53
ATOM     53  CB  TYR A   5      52.536  21.836  49.403  0.00  0.00    +0.055 C 
BRANCH  53  54
ATOM     54  CG  TYR A   5      53.548  20.741  49.149  0.00  0.00    -0.020 A 
ATOM     55  CD2 TYR A   5      53.738  19.699  50.062  0.00  0.00    -0.001 A 
ATOM     56  CE2 TYR A   5      54.634  18.655  49.792  0.00  0.00    +0.036 A 
ATOM     57  CZ  TYR A   5      55.347  18.659  48.597  0.00  0.00    +0.134 A 
ATOM     58  CE1 TYR A   5      55.176  19.682  47.684  0.00  0.00    +0.036 A 
ATOM     59  CD1 TYR A   5      54.282  20.716  47.960  0.00  0.00    -0.001 A 
BRANCH  57  60
ATOM     60  OH  TYR A   5      56.232  17.642  48.313  0.00  0.00    -0.506 OA
ATOM     61  HH  TYR A   5      55.951  17.185  47.481  0.00  0.00    +0.292 HD
ENDBRANCH  57  60
ENDBRANCH  53  54
ENDBRANCH  40  53
ENDBRANCH  38  40
ENDBRANCH  34  36
ENDBRANCH  32  34
ENDBRANCH   1  30
BRANCH   1  62
ATOM     62  CB  HIS A   3      57.427  21.290  49.691  0.00  0.00    +0.076 C 
BRANCH  62  63
ATOM     63  CG  HIS A   3      58.260  20.135  49.229  0.00  0.00    +0.082 A 
ATOM     64  ND1 HIS A   3      58.597  19.083  50.053  0.00  0.00    -0.227 NA
ATOM     65  CE1 HIS A   3      59.323  18.210  49.376  0.00  0.00    +0.199 A 
ATOM     66  NE2 HIS A   3      59.470  18.659  48.143  0.00  0.00    -0.221 NA
ATOM     67  CD2 HIS A   3      58.816  19.862  48.024  0.00  0.00    +0.115 A 
ENDBRANCH  62  63
ENDBRANCH   1  62
TORSDOF 26
REMARK  Name = ../refined-set-2016/1g2o/1g2o_pocket.pdb
REMARK  182 active torsions:
REMARK  status: ('A' for Active; 'I' for Inactive)
REMARK    1  A    between atoms: _1  and  _3
REMARK    2  A    between atoms: _3  and  _4
REMARK    3  A    between atoms: _6  and  _8
REMARK    4  A    between atoms: _8  and  _9
REMARK    5  A    between atoms: _8  and  _11
REMARK    6  A    between atoms: _11  and  _12
REMARK    7  A    between atoms: _14  and  _16
REMARK    8  A    between atoms: _16  and  _17
REMARK    9  A    between atoms: _19  and  _21
REMARK   10  A    between atoms: _21  and  _22
REMARK   11  A    between atoms: _25  and  _27
REMARK   12  A    between atoms: _27  and  _28
REMARK   13  A    between atoms: _31  and  _33
REMARK   14  A    between atoms: _33  and  _34
REMARK   15  A    between atoms: _33  and  _36
REMARK   16  A    between atoms: _36  and  _37
REMARK   17  A    between atoms: _42  and  _44
REMARK   18  A    between atoms: _44  and  _45
REMARK   19  A    between atoms: _44  and  _47
REMARK   20  A    between atoms: _47  and  _48
REMARK   21  A    between atoms: _48  and  _49
REMARK   22  A    between atoms: _49  and  _50
REMARK   23  A    between atoms: _59  and  _61
REMARK   24  A    between atoms: _61  and  _62
REMARK   25  A    between atoms: _61  and  _64
REMARK   26  A    between atoms: _64  and  _65
REMARK   27  A    between atoms: _68  and  _70
REMARK   28  A    between atoms: _70  and  _71
REMARK   29  A    between atoms: _70  and  _73
REMARK   30  A    between atoms: _73  and  _74
REMARK   31  A    between atoms: _79  and  _81
REMARK   32  A    between atoms: _81  and  _82
REMARK   33  A    between atoms: _85  and  _87
REMARK   34  A    between atoms: _87  and  _88
REMARK   35  A    between atoms: _87  and  _90
REMARK   36  A    between atoms: _90  and  _91
REMARK   37  A    between atoms: _96  and  _97
REMARK   38  A    between atoms: _99  and  _101
REMARK   39  A    between atoms: _101  and  _102
REMARK   40  A    between atoms: _101  and  _104
REMARK   41  A    between atoms: _104  and  _105
REMARK   42  A    between atoms: _105  and  _106
REMARK   43  A    between atoms: _109  and  _111
REMARK   44  A    between atoms: _111  and  _112
REMARK   45  A    between atoms: _111  and  _114
REMARK   46  A    between atoms: _114  and  _115
REMARK   47  A    between atoms: _120  and  _122
REMARK   48  A    between atoms: _122  and  _123
REMARK   49  A    between atoms: _126  and  _128
REMARK   50  A    between atoms: _128  and  _129
REMARK   51  A    between atoms: _132  and  _134
REMARK   52  A    between atoms: _134  and  _135
REMARK   53  A    between atoms: _137  and  _139
REMARK   54  A    between atoms: _139  and  _140
REMARK   55  A    between atoms: _142  and  _144
REMARK   56  A    between atoms: _144  and  _145
REMARK   57  A    between atoms: _144  and  _147
REMARK   58  A    between atoms: _147  and  _148
REMARK   59  A    between atoms: _151  and  _153
REMARK   60  A    between atoms: _153  and  _154
REMARK   61  A    between atoms: _153  and  _156
REMARK   62  A    between atoms: _156  and  _157
REMARK   63  A    between atoms: _162  and  _163
REMARK   64  A    between atoms: _165  and  _167
REMARK   65  A    between atoms: _167  and  _168
REMARK   66  A    between atoms: _171  and  _173
REMARK   67  A    between atoms: _173  and  _174
REMARK   68  A    between atoms: _176  and  _178
REMARK   69  A    between atoms: _178  and  _179
REMARK   70  A    between atoms: _178  and  _181
REMARK   71  A    between atoms: _181  and  _182
REMARK   72  A    between atoms: _186  and  _187
REMARK   73  A    between atoms: _192  and  _194
REMARK   74  A    between atoms: _194  and  _195
REMARK   75  A    between atoms: _198  and  _199
REMARK   76  A    between atoms: _204  and  _206
REMARK   77  A    between atoms: _206  and  _207
REMARK   78  A    between atoms: _206  and  _209
REMARK   79  A    between atoms: _209  and  _210
REMARK   80  A    between atoms: _215  and  _217
REMARK   81  A    between atoms: _217  and  _218
REMARK   82  A    between atoms: _217  and  _220
REMARK   83  A    between atoms: _220  and  _221
REMARK   84  A    between atoms: _226  and  _227
REMARK   85  A    between atoms: _229  and  _231
REMARK   86  A    between atoms: _231  and  _232
REMARK   87  A    between atoms: _231  and  _234
REMARK   88  A    between atoms: _234  and  _235
REMARK   89  A    between atoms: _235  and  _236
REMARK   90  A    between atoms: _239  and  _241
REMARK   91  A    between atoms: _241  and  _242
REMARK   92  A    between atoms: _241  and  _244
REMARK   93  A    between atoms: _244  and  _245
REMARK   94  A    between atoms: _248  and  _250
REMARK   95  A    between atoms: _250  and  _251
REMARK   96  A    between atoms: _250  and  _253
REMARK   97  A    between atoms: _253  and  _254
REMARK   98  A    between atoms: _257  and  _259
REMARK   99  A    between atoms: _259  and  _260
REMARK  100  A    between atoms: _259  and  _262
REMARK  101  A    between atoms: _262  and  _263
REMARK  102  A    between atoms: _266  and  _268
REMARK  103  A    between atoms: _268  and  _269
REMARK  104  A    between atoms: _268  and  _271
REMARK  105  A    between atoms: _274  and  _276
REMARK  106  A    between atoms: _276  and  _277
REMARK  107  A    between atoms: _279  and  _281
REMARK  108  A    between atoms: _281  and  _282
REMARK  109  A    between atoms: _281  and  _284
REMARK  110  A    between atoms: _284  and  _285
REMARK  111  A    between atoms: _285  and  _286
REMARK  112  A    between atoms: _288  and  _290
REMARK  113  A    between atoms: _290  and  _291
REMARK  114  A    between atoms: _290  and  _293
REMARK  115  A    between atoms: _293  and  _294
REMARK  116  A    between atoms: _296  and  _298
REMARK  117  A    between atoms: _298  and  _299
REMARK  118  A    between atoms: _298  and  _301
REMARK  119  A    between atoms: _301  and  _302
REMARK  120  A    between atoms: _305  and  _307
REMARK  121  A    between atoms: _307  and  _308
REMARK  122  A    between atoms: _307  and  _310
REMARK  123  A    between atoms: _310  and  _311
REMARK  124  A    between atoms: _314  and  _316
REMARK  125  A    between atoms: _316  and  _317
REMARK  126  A    between atoms: _316  and  _319
REMARK  127  A    between atoms: _322  and  _324
REMARK  128  A    between atoms: _324  and  _325
REMARK  129  A    between atoms: _324  and  _327
REMARK  130  A    between atoms: _327  and  _328
REMARK  131  A    between atoms: _331  and  _333
REMARK  132  A    between atoms: _333  and  _334
REMARK  133  A    between atoms: _333  and  _336
REMARK  134  A    between atoms: _336  and  _337
REMARK  135  A    between atoms: _342  and  _344
REMARK  136  A    between atoms: _344  and  _345
REMARK  137  A    between atoms: _344  and  _347
REMARK  138  A    between atoms: _347  and  _348
REMARK  139  A    between atoms: _351  and  _353
REMARK  140  A    between atoms: _353  and  _354
REMARK  141  A    between atoms: _357  and  _359
REMARK  142  A    between atoms: _359  and  _360
REMARK  143  A    between atoms: _363  and  _365
REMARK  144  A    between atoms: _365  and  _366
REMARK  145  A    between atoms: _365  and  _368
REMARK  146  A    between atoms: _368  and  _369
REMARK  147  A    between atoms: _372  and  _374
REMARK  148  A    between atoms: _374  and  _375
REMARK  149  A    between atoms: _374  and  _377
REMARK  150  A    between atoms: _377  and  _378
REMARK  151  A    between atoms: _380  and  _382
REMARK  152  A    between atoms: _382  and  _383
REMARK  153  A    between atoms: _382  and  _385
REMARK  154  A    between atoms: _385  and  _386
REMARK  155  A    between atoms: _391  and  _393
REMARK  156  A    between atoms: _393  and  _394
REMARK  157  A    between atoms: _397  and  _399
REMARK  158  A    between atoms: _399  and  _400
REMARK  159  A    between atoms: _399  and  _402
REMARK  160  A    between atoms: _402  and  _403
REMARK  161  A    between atoms: _403  and  _404
REMARK  162  A    between atoms: _407  and  _409
REMARK  163  A    between atoms: _409  and  _410
REMARK  164  A    between atoms: _409  and  _412
REMARK  165  A    between atoms: _415  and  _417
REMARK  166  A    between atoms: _417  and  _418
REMARK  167  A    between atoms: _417  and  _420
REMARK  168  A    between atoms: _420  and  _421
REMARK  169  A    between atoms: _424  and  _426
REMARK  170  A    between atoms: _426  and  _427
REMARK  171  A    between atoms: _429  and  _431
REMARK  172  A    between atoms: _431  and  _432
REMARK  173  A    between atoms: _431  and  _434
REMARK  174  A    between atoms: _434  and  _435
REMARK  175  A    between atoms: _435  and  _436
REMARK  176  A    between atoms: _439  and  _441
REMARK  177  A    between atoms: _441  and  _442
REMARK  178  A    between atoms: _441  and  _444
REMARK  179  A    between atoms: _444  and  _445
REMARK  180  A    between atoms: _451  and  _453
REMARK  181  A    between atoms: _453  and  _454
REMARK  182  A    between atoms: _453  and  _456
REMARK                            x       y       z     vdW  Elec       q    Type
REMARK                         _______ _______ _______ _____ _____    ______ ____
ROOT
ATOM      1  CA  ALA A   3      59.034  17.629  37.561  0.00  0.00    +0.149 C 
ATOM      2  CB  ALA A   3      59.811  18.791  36.928  0.00  0.00    +0.031 C 
ENDROOT
BRANCH   1   5
ATOM      3  C   ALA A   2      60.139  16.791  39.535  0.00  0.00    +0.241 C 
ATOM      4  O   ALA A   2      59.534  17.593  40.248  0.00  0.00    -0.273 OA
ATOM      5  N   ALA A   3      59.963  16.726  38.222  0.00  0.00    -0.297 N 
ATOM      6  H   ALA A   3      60.492  16.026  37.663  0.00  0.00    +0.150 HD
BRANCH   3   7
ATOM      7  CA  ALA A   2      61.146  15.832  40.149  0.00  0.00    +0.149 C 
ATOM      8  CB  ALA A   2      60.425  14.781  40.996  0.00  0.00    +0.031 C 
BRANCH   7  10
ATOM      9  C   ASN A   1      63.182  17.087  40.683  0.00  0.00    +0.239 C 
ATOM     10  N   ALA A   2      61.952  16.697  40.997  0.00  0.00    -0.297 N 
ATOM     11  H   ALA A   2      61.544  17.027  41.895  0.00  0.00    +0.150 HD
ATOM     12  O   ASN A   1      63.797  16.703  39.682  0.00  0.00    -0.274 OA
BRANCH   9  13
ATOM     13  CA  ASN A   1      63.828  18.026  41.679  0.00  0.00    +0.154 C 
BRANCH  13  14
ATOM     14  N   ASN A   1      65.216  18.289  41.349  0.00  0.00    -0.238 NA
ATOM     15  H   ASN A   1      65.566  18.110  40.386  0.00  0.00    +0.142 HD
ENDBRANCH  13  14
BRANCH  13  16
ATOM     16  CB  ASN A   1      63.029  19.342  41.773  0.00  0.00    +0.111 C 
BRANCH  16  17
ATOM     17  CG  ASN A   1      62.949  20.099  40.448  0.00  0.00    +0.221 C 
ATOM     18  OD1 ASN A   1      63.080  21.331  40.418  0.00  0.00    -0.275 OA
ATOM     19  ND2 ASN A   1      62.708  19.380  39.358  0.00  0.00    -0.329 N 
ATOM     20 HD21 ASN A   1      62.605  18.348  39.428  0.00  0.00    +0.145 HD
ATOM     21 HD22 ASN A   1      62.622  19.849  38.434  0.00  0.00    +0.145 HD
ENDBRANCH  16  17
ENDBRANCH  13  16
ENDBRANCH   9  13
ENDBRANCH   7  10
ENDBRANCH   3   7
ENDBRANCH   1   5
BRANCH   1  22
ATOM     22  C   ALA A   3      58.203  16.932  36.496  0.00  0.00    +0.241 C 
ATOM     23  N   GLY A   4      57.038  17.500  36.209  0.00  0.00    -0.295 N 
ATOM     24  H   GLY A   4      56.729  18.342  36.735  0.00  0.00    +0.150 HD
ATOM     25  O   ALA A   3      58.596  15.897  35.961  0.00  0.00    -0.273 OA
BRANCH  23  26
ATOM     26  CA  GLY A   4      56.195  16.952  35.167  0.00  0.00    +0.176 C 
BRANCH  26  27
ATOM     27  C   GLY A   4      56.719  17.587  33.892  0.00  0.00    +0.243 C 
ATOM     28  O   GLY A   4      57.071  18.766  33.897  0.00  0.00    -0.273 OA
ATOM     29  N   GLY A   5      56.801  16.820  32.808  0.00  0.00    -0.295 N 
ATOM     30  H   GLY A   5      56.509  15.823  32.851  0.00  0.00    +0.150 HD
BRANCH  29  31
ATOM     31  CA  GLY A   5      57.301  17.382  31.563  0.00  0.00    +0.176 C 
BRANCH  31  32
ATOM     32  C   GLY A   5      56.181  17.918  30.691  0.00  0.00    +0.243 C 
ATOM     33  O   GLY A   5      55.201  17.216  30.443  0.00  0.00    -0.273 OA
ATOM     34  N   LEU A   6      56.320  19.155  30.220  0.00  0.00    -0.298 N 
ATOM     35  H   LEU A   6      57.175  19.699  30.455  0.00  0.00    +0.150 HD
BRANCH  34  36
ATOM     36  CA  LEU A   6      55.292  19.760  29.379  0.00  0.00    +0.137 C 
BRANCH  36  37
ATOM     37  C   LEU A   6      55.659  19.841  27.904  0.00  0.00    +0.227 C 
ATOM     38  O   LEU A   6      54.773  19.800  27.048  0.00  0.00    -0.286 OA
ENDBRANCH  36  37
BRANCH  36  39
ATOM     39  CB  LEU A   6      54.935  21.167  29.871  0.00  0.00    +0.028 C 
BRANCH  39  40
ATOM     40  CG  LEU A   6      54.191  21.310  31.199  0.00  0.00    +0.002 C 
ATOM     41  CD2 LEU A   6      55.178  21.209  32.347  0.00  0.00    +0.000 C 
ATOM     42  CD1 LEU A   6      53.475  22.657  31.235  0.00  0.00    +0.000 C 
ENDBRANCH  39  40
ENDBRANCH  36  39
ENDBRANCH  34  36
ENDBRANCH  31  32
ENDBRANCH  29  31
ENDBRANCH  26  27
ENDBRANCH  23  26
ENDBRANCH   1  22
TORSDOF 16
REMARK  Name = ../refined-set-2016/1g2o/1g2o_pocket.pdb
REMARK  182 active torsions:
REMARK  status: ('A' for Active; 'I' for Inactive)
REMARK    1  A    between atoms: _1  and  _3
REMARK    2  A    between atoms: _3  and  _4
REMARK    3  A    between atoms: _6  and  _8
REMARK    4  A    between atoms: _8  and  _9
REMARK    5  A    between atoms: _8  and  _11
REMARK    6  A    between atoms: _11  and  _12
REMARK    7  A    between atoms: _14  and  _16
REMARK    8  A    between atoms: _16  and  _17
REMARK    9  A    between atoms: _19  and  _21
REMARK   10  A    between atoms: _21  and  _22
REMARK   11  A    between atoms: _25  and  _27
REMARK   12  A    between atoms: _27  and  _28
REMARK   13  A    between atoms: _31  and  _33
REMARK   14  A    between atoms: _33  and  _34
REMARK   15  A    between atoms: _33  and  _36
REMARK   16  A    between atoms: _36  and  _37
REMARK   17  A    between atoms: _42  and  _44
REMARK   18  A    between atoms: _44  and  _45
REMARK   19  A    between atoms: _44  and  _47
REMARK   20  A    between atoms: _47  and  _48
REMARK   21  A    between atoms: _48  and  _49
REMARK   22  A    between atoms: _49  and  _50
REMARK   23  A    between atoms: _59  and  _61
REMARK   24  A    between atoms: _61  and  _62
REMARK   25  A    between atoms: _61  and  _64
REMARK   26  A    between atoms: _64  and  _65
REMARK   27  A    between atoms: _68  and  _70
REMARK   28  A    between atoms: _70  and  _71
REMARK   29  A    between atoms: _70  and  _73
REMARK   30  A    between atoms: _73  and  _74
REMARK   31  A    between atoms: _79  and  _81
REMARK   32  A    between atoms: _81  and  _82
REMARK   33  A    between atoms: _85  and  _87
REMARK   34  A    between atoms: _87  and  _88
REMARK   35  A    between atoms: _87  and  _90
REMARK   36  A    between atoms: _90  and  _91
REMARK   37  A    between atoms: _96  and  _97
REMARK   38  A    between atoms: _99  and  _101
REMARK   39  A    between atoms: _101  and  _102
REMARK   40  A    between atoms: _101  and  _104
REMARK   41  A    between atoms: _104  and  _105
REMARK   42  A    between atoms: _105  and  _106
REMARK   43  A    between atoms: _109  and  _111
REMARK   44  A    between atoms: _111  and  _112
REMARK   45  A    between atoms: _111  and  _114
REMARK   46  A    between atoms: _114  and  _115
REMARK   47  A    between atoms: _120  and  _122
REMARK   48  A    between atoms: _122  and  _123
REMARK   49  A    between atoms: _126  and  _128
REMARK   50  A    between atoms: _128  and  _129
REMARK   51  A    between atoms: _132  and  _134
REMARK   52  A    between atoms: _134  and  _135
REMARK   53  A    between atoms: _137  and  _139
REMARK   54  A    between atoms: _139  and  _140
REMARK   55  A    between atoms: _142  and  _144
REMARK   56  A    between atoms: _144  and  _145
REMARK   57  A    between atoms: _144  and  _147
REMARK   58  A    between atoms: _147  and  _148
REMARK   59  A    between atoms: _151  and  _153
REMARK   60  A    between atoms: _153  and  _154
REMARK   61  A    between atoms: _153  and  _156
REMARK   62  A    between atoms: _156  and  _157
REMARK   63  A    between atoms: _162  and  _163
REMARK   64  A    between atoms: _165  and  _167
REMARK   65  A    between atoms: _167  and  _168
REMARK   66  A    between atoms: _171  and  _173
REMARK   67  A    between atoms: _173  and  _174
REMARK   68  A    between atoms: _176  and  _178
REMARK   69  A    between atoms: _178  and  _179
REMARK   70  A    between atoms: _178  and  _181
REMARK   71  A    between atoms: _181  and  _182
REMARK   72  A    between atoms: _186  and  _187
REMARK   73  A    between atoms: _192  and  _194
REMARK   74  A    between atoms: _194  and  _195
REMARK   75  A    between atoms: _198  and  _199
REMARK   76  A    between atoms: _204  and  _206
REMARK   77  A    between atoms: _206  and  _207
REMARK   78  A    between atoms: _206  and  _209
REMARK   79  A    between atoms: _209  and  _210
REMARK   80  A    between atoms: _215  and  _217
REMARK   81  A    between atoms: _217  and  _218
REMARK   82  A    between atoms: _217  and  _220
REMARK   83  A    between atoms: _220  and  _221
REMARK   84  A    between atoms: _226  and  _227
REMARK   85  A    between atoms: _229  and  _231
REMARK   86  A    between atoms: _231  and  _232
REMARK   87  A    between atoms: _231  and  _234
REMARK   88  A    between atoms: _234  and  _235
REMARK   89  A    between atoms: _235  and  _236
REMARK   90  A    between atoms: _239  and  _241
REMARK   91  A    between atoms: _241  and  _242
REMARK   92  A    between atoms: _241  and  _244
REMARK   93  A    between atoms: _244  and  _245
REMARK   94  A    between atoms: _248  and  _250
REMARK   95  A    between atoms: _250  and  _251
REMARK   96  A    between atoms: _250  and  _253
REMARK   97  A    between atoms: _253  and  _254
REMARK   98  A    between atoms: _257  and  _259
REMARK   99  A    between atoms: _259  and  _260
REMARK  100  A    between atoms: _259  and  _262
REMARK  101  A    between atoms: _262  and  _263
REMARK  102  A    between atoms: _266  and  _268
REMARK  103  A    between atoms: _268  and  _269
REMARK  104  A    between atoms: _268  and  _271
REMARK  105  A    between atoms: _274  and  _276
REMARK  106  A    between atoms: _276  and  _277
REMARK  107  A    between atoms: _279  and  _281
REMARK  108  A    between atoms: _281  and  _282
REMARK  109  A    between atoms: _281  and  _284
REMARK  110  A    between atoms: _284  and  _285
REMARK  111  A    between atoms: _285  and  _286
REMARK  112  A    between atoms: _288  and  _290
REMARK  113  A    between atoms: _290  and  _291
REMARK  114  A    between atoms: _290  and  _293
REMARK  115  A    between atoms: _293  and  _294
REMARK  116  A    between atoms: _296  and  _298
REMARK  117  A    between atoms: _298  and  _299
REMARK  118  A    between atoms: _298  and  _301
REMARK  119  A    between atoms: _301  and  _302
REMARK  120  A    between atoms: _305  and  _307
REMARK  121  A    between atoms: _307  and  _308
REMARK  122  A    between atoms: _307  and  _310
REMARK  123  A    between atoms: _310  and  _311
REMARK  124  A    between atoms: _314  and  _316
REMARK  125  A    between atoms: _316  and  _317
REMARK  126  A    between atoms: _316  and  _319
REMARK  127  A    between atoms: _322  and  _324
REMARK  128  A    between atoms: _324  and  _325
REMARK  129  A    between atoms: _324  and  _327
REMARK  130  A    between atoms: _327  and  _328
REMARK  131  A    between atoms: _331  and  _333
REMARK  132  A    between atoms: _333  and  _334
REMARK  133  A    between atoms: _333  and  _336
REMARK  134  A    between atoms: _336  and  _337
REMARK  135  A    between atoms: _342  and  _344
REMARK  136  A    between atoms: _344  and  _345
REMARK  137  A    between atoms: _344  and  _347
REMARK  138  A    between atoms: _347  and  _348
REMARK  139  A    between atoms: _351  and  _353
REMARK  140  A    between atoms: _353  and  _354
REMARK  141  A    between atoms: _357  and  _359
REMARK  142  A    between atoms: _359  and  _360
REMARK  143  A    between atoms: _363  and  _365
REMARK  144  A    between atoms: _365  and  _366
REMARK  145  A    between atoms: _365  and  _368
REMARK  146  A    between atoms: _368  and  _369
REMARK  147  A    between atoms: _372  and  _374
REMARK  148  A    between atoms: _374  and  _375
REMARK  149  A    between atoms: _374  and  _377
REMARK  150  A    between atoms: _377  and  _378
REMARK  151  A    between atoms: _380  and  _382
REMARK  152  A    between atoms: _382  and  _383
REMARK  153  A    between atoms: _382  and  _385
REMARK  154  A    between atoms: _385  and  _386
REMARK  155  A    between atoms: _391  and  _393
REMARK  156  A    between atoms: _393  and  _394
REMARK  157  A    between atoms: _397  and  _399
REMARK  158  A    between atoms: _399  and  _400
REMARK  159  A    between atoms: _399  and  _402
REMARK  160  A    between atoms: _402  and  _403
REMARK  161  A    between atoms: _403  and  _404
REMARK  162  A    between atoms: _407  and  _409
REMARK  163  A    between atoms: _409  and  _410
REMARK  164  A    between atoms: _409  and  _412
REMARK  165  A    between atoms: _415  and  _417
REMARK  166  A    between atoms: _417  and  _418
REMARK  167  A    between atoms: _417  and  _420
REMARK  168  A    between atoms: _420  and  _421
REMARK  169  A    between atoms: _424  and  _426
REMARK  170  A    between atoms: _426  and  _427
REMARK  171  A    between atoms: _429  and  _431
REMARK  172  A    between atoms: _431  and  _432
REMARK  173  A    between atoms: _431  and  _434
REMARK  174  A    between atoms: _434  and  _435
REMARK  175  A    between atoms: _435  and  _436
REMARK  176  A    between atoms: _439  and  _441
REMARK  177  A    between atoms: _441  and  _442
REMARK  178  A    between atoms: _441  and  _444
REMARK  179  A    between atoms: _444  and  _445
REMARK  180  A    between atoms: _451  and  _453
REMARK  181  A    between atoms: _453  and  _454
REMARK  182  A    between atoms: _453  and  _456
REMARK                            x       y       z     vdW  Elec       q    Type
REMARK                         _______ _______ _______ _____ _____    ______ ____
ROOT
ATOM      1  CA  GLY A   6      50.901  22.226  45.329  0.00  0.00    +0.176 C 
ENDROOT
BRANCH   1   2
ATOM      2  C   GLY A   6      50.001  22.175  46.555  0.00  0.00    +0.246 C 
ATOM      3  N   PRO A   7      49.776  20.995  47.155  0.00  0.00    -0.272 N 
ATOM      4  CD  PRO A   7      49.033  20.889  48.426  0.00  0.00    +0.094 C 
ATOM      5  CG  PRO A   7      49.079  19.388  48.724  0.00  0.00    +0.024 C 
ATOM      6  CB  PRO A   7      50.366  18.956  48.099  0.00  0.00    +0.031 C 
ATOM      7  CA  PRO A   7      50.313  19.689  46.769  0.00  0.00    +0.152 C 
ATOM      8  O   GLY A   6      49.545  23.225  47.014  0.00  0.00    -0.273 OA
BRANCH   7   9
ATOM      9  C   PRO A   7      49.494  18.930  45.727  0.00  0.00    +0.241 C 
ATOM     10  N   HIS A   8      48.326  19.450  45.371  0.00  0.00    -0.297 N 
ATOM     11  H   HIS A   8      47.986  20.329  45.810  0.00  0.00    +0.150 HD
ATOM     12  O   PRO A   7      49.904  17.866  45.262  0.00  0.00    -0.273 OA
BRANCH  10  13
ATOM     13  CA  HIS A   8      47.526  18.775  44.359  0.00  0.00    +0.155 C 
BRANCH  13  14
ATOM     14  C   HIS A   8      48.257  18.901  43.023  0.00  0.00    +0.241 C 
ATOM     15  O   HIS A   8      48.930  19.902  42.776  0.00  0.00    -0.273 OA
ATOM     16  N   TYR A   9      48.152  17.881  42.176  0.00  0.00    -0.297 N 
ATOM     17  H   TYR A   9      47.619  17.032  42.454  0.00  0.00    +0.150 HD
BRANCH  16  18
ATOM     18  CA  TYR A   9      48.777  17.943  40.861  0.00  0.00    +0.153 C 
BRANCH  18  19
ATOM     19  C   TYR A   9      47.911  18.868  40.013  0.00  0.00    +0.241 C 
ATOM     20  O   TYR A   9      46.778  19.183  40.388  0.00  0.00    -0.273 OA
ATOM     21  N   GLU A  10      48.436  19.300  38.872  0.00  0.00    -0.298 N 
ATOM     22  H   GLU A  10      49.387  18.981  38.597  0.00  0.00    +0.150 HD
BRANCH  21  23
ATOM     23  CA  GLU A  10      47.708  20.214  37.994  0.00  0.00    +0.137 C 
BRANCH  23  24
ATOM     24  C   GLU A  10      46.590  19.562  37.179  0.00  0.00    +0.227 C 
ATOM     25  O   GLU A  10      46.594  18.353  36.941  0.00  0.00    -0.286 OA
ENDBRANCH  23  24
BRANCH  23  26
ATOM     26  CB  GLU A  10      48.679  20.884  37.013  0.00  0.00    +0.039 C 
BRANCH  26  27
ATOM     27  CG  GLU A  10      49.829  21.661  37.643  0.00  0.00    +0.116 C 
BRANCH  27  28
ATOM     28  CD  GLU A  10      50.826  20.772  38.361  0.00  0.00    +0.365 C 
ATOM     29  OE2 GLU A  10      51.240  21.136  39.484  0.00  0.00    -0.246 OA
ATOM     30  OE1 GLU A  10      51.209  19.723  37.800  0.00  0.00    -0.246 OA
ENDBRANCH  27  28
ENDBRANCH  26  27
ENDBRANCH  23  26
ENDBRANCH  21  23
ENDBRANCH  18  19
BRANCH  18  31
ATOM     31  CB  TYR A   9      48.844  16.554  40.216  0.00  0.00    +0.055 C 
BRANCH  31  32
ATOM     32  CG  TYR A   9      49.902  15.645  40.807  0.00  0.00    -0.020 A 
ATOM     33  CD2 TYR A   9      49.544  14.482  41.490  0.00  0.00    -0.001 A 
ATOM     34  CE2 TYR A   9      50.508  13.627  42.014  0.00  0.00    +0.036 A 
ATOM     35  CZ  TYR A   9      51.853  13.934  41.857  0.00  0.00    +0.134 A 
ATOM     36  CE1 TYR A   9      52.237  15.085  41.183  0.00  0.00    +0.036 A 
ATOM     37  CD1 TYR A   9      51.263  15.934  40.662  0.00  0.00    -0.001 A 
BRANCH  35  38
ATOM     38  OH  TYR A   9      52.806  13.088  42.378  0.00  0.00    -0.506 OA
ATOM     39  HH  TYR A   9      53.356  13.579  43.038  0.00  0.00    +0.292 HD
ENDBRANCH  35  38
ENDBRANCH  31  32
ENDBRANCH  18  31
ENDBRANCH  16  18
ENDBRANCH  13  14
BRANCH  13  40
ATOM     40  CB  HIS A   8      46.137  19.424  44.238  0.00  0.00    +0.076 C 
BRANCH  40  41
ATOM     41  CG  HIS A   8      46.174  20.878  43.875  0.00  0.00    +0.082 A 
ATOM     42  ND1 HIS A   8      46.181  21.881  44.818  0.00  0.00    -0.227 NA
ATOM     43  CE1 HIS A   8      46.245  23.055  44.212  0.00  0.00    +0.199 A 
ATOM     44  NE2 HIS A   8      46.279  22.849  42.908  0.00  0.00    -0.221 NA
ATOM     45  CD2 HIS A   8      46.235  21.496  42.670  0.00  0.00    +0.115 A 
ENDBRANCH  40  41
ENDBRANCH  13  40
ENDBRANCH  10  13
ENDBRANCH   7   9
ENDBRANCH   1   2
BRANCH   1  48
ATOM     46  C   PRO A   5      51.980  24.324  45.788  0.00  0.00    +0.241 C 
ATOM     47  O   PRO A   5      52.622  23.821  46.708  0.00  0.00    -0.273 OA
ATOM     48  N   GLY A   6      51.134  23.629  45.038  0.00  0.00    -0.295 N 
ATOM     49  H   GLY A   6      50.640  24.087  44.246  0.00  0.00    +0.150 HD
BRANCH  46  52
ATOM     50  C   LEU A   4      53.389  25.703  43.346  0.00  0.00    +0.244 C 
ATOM     51  N   PRO A   5      52.301  26.096  44.026  0.00  0.00    -0.272 N 
ATOM     52  CA  PRO A   5      52.125  25.806  45.454  0.00  0.00    +0.152 C 
ATOM     53  CB  PRO A   5      50.853  26.578  45.816  0.00  0.00    +0.031 C 
ATOM     54  CG  PRO A   5      50.830  27.699  44.829  0.00  0.00    +0.024 C 
ATOM     55  CD  PRO A   5      51.269  27.034  43.553  0.00  0.00    +0.094 C 
ATOM     56  O   LEU A   4      54.302  25.080  43.885  0.00  0.00    -0.273 OA
BRANCH  50  57
ATOM     57  CA  LEU A   4      53.461  26.064  41.859  0.00  0.00    +0.149 C 
BRANCH  57  59
ATOM     58  C   GLY A   3      55.592  26.839  40.931  0.00  0.00    +0.243 C 
ATOM     59  N   LEU A   4      54.813  25.844  41.346  0.00  0.00    -0.297 N 
ATOM     60  H   LEU A   4      55.179  24.872  41.304  0.00  0.00    +0.150 HD
ATOM     61  O   GLY A   3      55.234  28.021  40.923  0.00  0.00    -0.273 OA
BRANCH  58  62
ATOM     62  CA  GLY A   3      56.972  26.450  40.432  0.00  0.00    +0.176 C 
BRANCH  62  64
ATOM     63  C   ALA A   2      57.021  25.958  38.065  0.00  0.00    +0.241 C 
ATOM     64  N   GLY A   3      57.136  26.847  39.047  0.00  0.00    -0.295 N 
ATOM     65  H   GLY A   3      57.346  27.840  38.819  0.00  0.00    +0.150 HD
ATOM     66  O   ALA A   2      56.813  24.754  38.258  0.00  0.00    -0.273 OA
BRANCH  63  67
ATOM     67  CA  ALA A   2      57.198  26.497  36.654  0.00  0.00    +0.149 C 
ATOM     68  CB  ALA A   2      55.902  26.338  35.871  0.00  0.00    +0.031 C 
BRANCH  67  71
ATOM     69  C   TYR A   1      59.506  26.243  35.944  0.00  0.00    +0.239 C 
ATOM     70  O   TYR A   1      59.800  27.366  36.356  0.00  0.00    -0.274 OA
ATOM     71  N   ALA A   2      58.278  25.744  36.028  0.00  0.00    -0.297 N 
ATOM     72  H   ALA A   2      58.083  24.799  35.640  0.00  0.00    +0.150 HD
BRANCH  69  73
ATOM     73  CA  TYR A   1      60.566  25.346  35.300  0.00  0.00    +0.149 C 
BRANCH  73  74
ATOM     74  N   TYR A   1      61.286  26.022  34.226  0.00  0.00    -0.238 NA
ATOM     75  H   TYR A   1      62.076  26.652  34.473  0.00  0.00    +0.142 HD
ENDBRANCH  73  74
BRANCH  73  76
ATOM     76  CB  TYR A   1      61.574  24.905  36.364  0.00  0.00    +0.053 C 
BRANCH  76  77
ATOM     77  CG  TYR A   1      60.978  24.295  37.610  0.00  0.00    -0.020 A 
ATOM     78  CD2 TYR A   1      60.665  25.089  38.713  0.00  0.00    -0.001 A 
ATOM     79  CE2 TYR A   1      60.176  24.522  39.893  0.00  0.00    +0.036 A 
ATOM     80  CZ  TYR A   1      59.999  23.149  39.969  0.00  0.00    +0.134 A 
ATOM     81  CE1 TYR A   1      60.295  22.338  38.880  0.00  0.00    +0.036 A 
ATOM     82  CD1 TYR A   1      60.780  22.916  37.709  0.00  0.00    -0.001 A 
BRANCH  80  83
ATOM     83  OH  TYR A   1      59.560  22.587  41.146  0.00  0.00    -0.506 OA
ATOM     84  HH  TYR A   1      59.487  21.606  41.035  0.00  0.00    +0.292 HD
ENDBRANCH  80  83
ENDBRANCH  76  77
ENDBRANCH  73  76
ENDBRANCH  69  73
ENDBRANCH  67  71
ENDBRANCH  63  67
ENDBRANCH  62  64
ENDBRANCH  58  62
ENDBRANCH  57  59
BRANCH  57  85
ATOM     85  CB  LEU A   4      52.452  25.215  41.080  0.00  0.00    +0.029 C 
BRANCH  85  86
ATOM     86  CG  LEU A   4      51.958  25.744  39.727  0.00  0.00    +0.002 C 
ATOM     87  CD2 LEU A   4      50.972  24.740  39.125  0.00  0.00    +0.000 C 
ATOM     88  CD1 LEU A   4      53.137  25.962  38.781  0.00  0.00    +0.000 C 
ENDBRANCH  85  86
ENDBRANCH  57  85
ENDBRANCH  50  57
ENDBRANCH  46  52
ENDBRANCH   1  48
TORSDOF 31
REMARK  Name = ../refined-set-2016/1g2o/1g2o_pocket.pdb
REMARK  182 active torsions:
REMARK  status: ('A' for Active; 'I' for Inactive)
REMARK    1  A    between atoms: _1  and  _3
REMARK    2  A    between atoms: _3  and  _4
REMARK    3  A    between atoms: _6  and  _8
REMARK    4  A    between atoms: _8  and  _9
REMARK    5  A    between atoms: _8  and  _11
REMARK    6  A    between atoms: _11  and  _12
REMARK    7  A    between atoms: _14  and  _16
REMARK    8  A    between atoms: _16  and  _17
REMARK    9  A    between atoms: _19  and  _21
REMARK   10  A    between atoms: _21  and  _22
REMARK   11  A    between atoms: _25  and  _27
REMARK   12  A    between atoms: _27  and  _28
REMARK   13  A    between atoms: _31  and  _33
REMARK   14  A    between atoms: _33  and  _34
REMARK   15  A    between atoms: _33  and  _36
REMARK   16  A    between atoms: _36  and  _37
REMARK   17  A    between atoms: _42  and  _44
REMARK   18  A    between atoms: _44  and  _45
REMARK   19  A    between atoms: _44  and  _47
REMARK   20  A    between atoms: _47  and  _48
REMARK   21  A    between atoms: _48  and  _49
REMARK   22  A    between atoms: _49  and  _50
REMARK   23  A    between atoms: _59  and  _61
REMARK   24  A    between atoms: _61  and  _62
REMARK   25  A    between atoms: _61  and  _64
REMARK   26  A    between atoms: _64  and  _65
REMARK   27  A    between atoms: _68  and  _70
REMARK   28  A    between atoms: _70  and  _71
REMARK   29  A    between atoms: _70  and  _73
REMARK   30  A    between atoms: _73  and  _74
REMARK   31  A    between atoms: _79  and  _81
REMARK   32  A    between atoms: _81  and  _82
REMARK   33  A    between atoms: _85  and  _87
REMARK   34  A    between atoms: _87  and  _88
REMARK   35  A    between atoms: _87  and  _90
REMARK   36  A    between atoms: _90  and  _91
REMARK   37  A    between atoms: _96  and  _97
REMARK   38  A    between atoms: _99  and  _101
REMARK   39  A    between atoms: _101  and  _102
REMARK   40  A    between atoms: _101  and  _104
REMARK   41  A    between atoms: _104  and  _105
REMARK   42  A    between atoms: _105  and  _106
REMARK   43  A    between atoms: _109  and  _111
REMARK   44  A    between atoms: _111  and  _112
REMARK   45  A    between atoms: _111  and  _114
REMARK   46  A    between atoms: _114  and  _115
REMARK   47  A    between atoms: _120  and  _122
REMARK   48  A    between atoms: _122  and  _123
REMARK   49  A    between atoms: _126  and  _128
REMARK   50  A    between atoms: _128  and  _129
REMARK   51  A    between atoms: _132  and  _134
REMARK   52  A    between atoms: _134  and  _135
REMARK   53  A    between atoms: _137  and  _139
REMARK   54  A    between atoms: _139  and  _140
REMARK   55  A    between atoms: _142  and  _144
REMARK   56  A    between atoms: _144  and  _145
REMARK   57  A    between atoms: _144  and  _147
REMARK   58  A    between atoms: _147  and  _148
REMARK   59  A    between atoms: _151  and  _153
REMARK   60  A    between atoms: _153  and  _154
REMARK   61  A    between atoms: _153  and  _156
REMARK   62  A    between atoms: _156  and  _157
REMARK   63  A    between atoms: _162  and  _163
REMARK   64  A    between atoms: _165  and  _167
REMARK   65  A    between atoms: _167  and  _168
REMARK   66  A    between atoms: _171  and  _173
REMARK   67  A    between atoms: _173  and  _174
REMARK   68  A    between atoms: _176  and  _178
REMARK   69  A    between atoms: _178  and  _179
REMARK   70  A    between atoms: _178  and  _181
REMARK   71  A    between atoms: _181  and  _182
REMARK   72  A    between atoms: _186  and  _187
REMARK   73  A    between atoms: _192  and  _194
REMARK   74  A    between atoms: _194  and  _195
REMARK   75  A    between atoms: _198  and  _199
REMARK   76  A    between atoms: _204  and  _206
REMARK   77  A    between atoms: _206  and  _207
REMARK   78  A    between atoms: _206  and  _209
REMARK   79  A    between atoms: _209  and  _210
REMARK   80  A    between atoms: _215  and  _217
REMARK   81  A    between atoms: _217  and  _218
REMARK   82  A    between atoms: _217  and  _220
REMARK   83  A    between atoms: _220  and  _221
REMARK   84  A    between atoms: _226  and  _227
REMARK   85  A    between atoms: _229  and  _231
REMARK   86  A    between atoms: _231  and  _232
REMARK   87  A    between atoms: _231  and  _234
REMARK   88  A    between atoms: _234  and  _235
REMARK   89  A    between atoms: _235  and  _236
REMARK   90  A    between atoms: _239  and  _241
REMARK   91  A    between atoms: _241  and  _242
REMARK   92  A    between atoms: _241  and  _244
REMARK   93  A    between atoms: _244  and  _245
REMARK   94  A    between atoms: _248  and  _250
REMARK   95  A    between atoms: _250  and  _251
REMARK   96  A    between atoms: _250  and  _253
REMARK   97  A    between atoms: _253  and  _254
REMARK   98  A    between atoms: _257  and  _259
REMARK   99  A    between atoms: _259  and  _260
REMARK  100  A    between atoms: _259  and  _262
REMARK  101  A    between atoms: _262  and  _263
REMARK  102  A    between atoms: _266  and  _268
REMARK  103  A    between atoms: _268  and  _269
REMARK  104  A    between atoms: _268  and  _271
REMARK  105  A    between atoms: _274  and  _276
REMARK  106  A    between atoms: _276  and  _277
REMARK  107  A    between atoms: _279  and  _281
REMARK  108  A    between atoms: _281  and  _282
REMARK  109  A    between atoms: _281  and  _284
REMARK  110  A    between atoms: _284  and  _285
REMARK  111  A    between atoms: _285  and  _286
REMARK  112  A    between atoms: _288  and  _290
REMARK  113  A    between atoms: _290  and  _291
REMARK  114  A    between atoms: _290  and  _293
REMARK  115  A    between atoms: _293  and  _294
REMARK  116  A    between atoms: _296  and  _298
REMARK  117  A    between atoms: _298  and  _299
REMARK  118  A    between atoms: _298  and  _301
REMARK  119  A    between atoms: _301  and  _302
REMARK  120  A    between atoms: _305  and  _307
REMARK  121  A    between atoms: _307  and  _308
REMARK  122  A    between atoms: _307  and  _310
REMARK  123  A    between atoms: _310  and  _311
REMARK  124  A    between atoms: _314  and  _316
REMARK  125  A    between atoms: _316  and  _317
REMARK  126  A    between atoms: _316  and  _319
REMARK  127  A    between atoms: _322  and  _324
REMARK  128  A    between atoms: _324  and  _325
REMARK  129  A    between atoms: _324  and  _327
REMARK  130  A    between atoms: _327  and  _328
REMARK  131  A    between atoms: _331  and  _333
REMARK  132  A    between atoms: _333  and  _334
REMARK  133  A    between atoms: _333  and  _336
REMARK  134  A    between atoms: _336  and  _337
REMARK  135  A    between atoms: _342  and  _344
REMARK  136  A    between atoms: _344  and  _345
REMARK  137  A    between atoms: _344  and  _347
REMARK  138  A    between atoms: _347  and  _348
REMARK  139  A    between atoms: _351  and  _353
REMARK  140  A    between atoms: _353  and  _354
REMARK  141  A    between atoms: _357  and  _359
REMARK  142  A    between atoms: _359  and  _360
REMARK  143  A    between atoms: _363  and  _365
REMARK  144  A    between atoms: _365  and  _366
REMARK  145  A    between atoms: _365  and  _368
REMARK  146  A    between atoms: _368  and  _369
REMARK  147  A    between atoms: _372  and  _374
REMARK  148  A    between atoms: _374  and  _375
REMARK  149  A    between atoms: _374  and  _377
REMARK  150  A    between atoms: _377  and  _378
REMARK  151  A    between atoms: _380  and  _382
REMARK  152  A    between atoms: _382  and  _383
REMARK  153  A    between atoms: _382  and  _385
REMARK  154  A    between atoms: _385  and  _386
REMARK  155  A    between atoms: _391  and  _393
REMARK  156  A    between atoms: _393  and  _394
REMARK  157  A    between atoms: _397  and  _399
REMARK  158  A    between atoms: _399  and  _400
REMARK  159  A    between atoms: _399  and  _402
REMARK  160  A    between atoms: _402  and  _403
REMARK  161  A    between atoms: _403  and  _404
REMARK  162  A    between atoms: _407  and  _409
REMARK  163  A    between atoms: _409  and  _410
REMARK  164  A    between atoms: _409  and  _412
REMARK  165  A    between atoms: _415  and  _417
REMARK  166  A    between atoms: _417  and  _418
REMARK  167  A    between atoms: _417  and  _420
REMARK  168  A    between atoms: _420  and  _421
REMARK  169  A    between atoms: _424  and  _426
REMARK  170  A    between atoms: _426  and  _427
REMARK  171  A    between atoms: _429  and  _431
REMARK  172  A    between atoms: _431  and  _432
REMARK  173  A    between atoms: _431  and  _434
REMARK  174  A    between atoms: _434  and  _435
REMARK  175  A    between atoms: _435  and  _436
REMARK  176  A    between atoms: _439  and  _441
REMARK  177  A    between atoms: _441  and  _442
REMARK  178  A    between atoms: _441  and  _444
REMARK  179  A    between atoms: _444  and  _445
REMARK  180  A    between atoms: _451  and  _453
REMARK  181  A    between atoms: _453  and  _454
REMARK  182  A    between atoms: _453  and  _456
REMARK                            x       y       z     vdW  Elec       q    Type
REMARK                         _______ _______ _______ _____ _____    ______ ____
ROOT
ATOM      1  CA  ILE A   1      48.991  22.404  32.062  0.00  0.00    +0.133 C 
ENDROOT
BRANCH   1   2
ATOM      2  N   ILE A   1      47.785  22.756  32.798  0.00  0.00    -0.239 NA
ATOM      3  H   ILE A   1      47.065  22.029  32.987  0.00  0.00    +0.142 HD
ENDBRANCH   1   2
BRANCH   1   4
ATOM      4  CB  ILE A   1      49.082  20.873  31.867  0.00  0.00    +0.023 C 
ATOM      5  CG2 ILE A   1      50.163  20.521  30.860  0.00  0.00    +0.002 C 
BRANCH   4   6
ATOM      6  CG1 ILE A   1      49.364  20.212  33.220  0.00  0.00    +0.002 C 
ATOM      7  CD1 ILE A   1      50.565  20.794  33.964  0.00  0.00    +0.000 C 
ENDBRANCH   4   6
ENDBRANCH   1   4
BRANCH   1   8
ATOM      8  C   ILE A   1      49.006  23.138  30.717  0.00  0.00    +0.224 C 
ATOM      9  O   ILE A   1      50.036  23.678  30.307  0.00  0.00    -0.287 OA
ENDBRANCH   1   8
TORSDOF 4
REMARK  Name = ../refined-set-2016/1g2o/1g2o_pocket.pdb
REMARK  182 active torsions:
REMARK  status: ('A' for Active; 'I' for Inactive)
REMARK    1  A    between atoms: _1  and  _3
REMARK    2  A    between atoms: _3  and  _4
REMARK    3  A    between atoms: _6  and  _8
REMARK    4  A    between atoms: _8  and  _9
REMARK    5  A    between atoms: _8  and  _11
REMARK    6  A    between atoms: _11  and  _12
REMARK    7  A    between atoms: _14  and  _16
REMARK    8  A    between atoms: _16  and  _17
REMARK    9  A    between atoms: _19  and  _21
REMARK   10  A    between atoms: _21  and  _22
REMARK   11  A    between atoms: _25  and  _27
REMARK   12  A    between atoms: _27  and  _28
REMARK   13  A    between atoms: _31  and  _33
REMARK   14  A    between atoms: _33  and  _34
REMARK   15  A    between atoms: _33  and  _36
REMARK   16  A    between atoms: _36  and  _37
REMARK   17  A    between atoms: _42  and  _44
REMARK   18  A    between atoms: _44  and  _45
REMARK   19  A    between atoms: _44  and  _47
REMARK   20  A    between atoms: _47  and  _48
REMARK   21  A    between atoms: _48  and  _49
REMARK   22  A    between atoms: _49  and  _50
REMARK   23  A    between atoms: _59  and  _61
REMARK   24  A    between atoms: _61  and  _62
REMARK   25  A    between atoms: _61  and  _64
REMARK   26  A    between atoms: _64  and  _65
REMARK   27  A    between atoms: _68  and  _70
REMARK   28  A    between atoms: _70  and  _71
REMARK   29  A    between atoms: _70  and  _73
REMARK   30  A    between atoms: _73  and  _74
REMARK   31  A    between atoms: _79  and  _81
REMARK   32  A    between atoms: _81  and  _82
REMARK   33  A    between atoms: _85  and  _87
REMARK   34  A    between atoms: _87  and  _88
REMARK   35  A    between atoms: _87  and  _90
REMARK   36  A    between atoms: _90  and  _91
REMARK   37  A    between atoms: _96  and  _97
REMARK   38  A    between atoms: _99  and  _101
REMARK   39  A    between atoms: _101  and  _102
REMARK   40  A    between atoms: _101  and  _104
REMARK   41  A    between atoms: _104  and  _105
REMARK   42  A    between atoms: _105  and  _106
REMARK   43  A    between atoms: _109  and  _111
REMARK   44  A    between atoms: _111  and  _112
REMARK   45  A    between atoms: _111  and  _114
REMARK   46  A    between atoms: _114  and  _115
REMARK   47  A    between atoms: _120  and  _122
REMARK   48  A    between atoms: _122  and  _123
REMARK   49  A    between atoms: _126  and  _128
REMARK   50  A    between atoms: _128  and  _129
REMARK   51  A    between atoms: _132  and  _134
REMARK   52  A    between atoms: _134  and  _135
REMARK   53  A    between atoms: _137  and  _139
REMARK   54  A    between atoms: _139  and  _140
REMARK   55  A    between atoms: _142  and  _144
REMARK   56  A    between atoms: _144  and  _145
REMARK   57  A    between atoms: _144  and  _147
REMARK   58  A    between atoms: _147  and  _148
REMARK   59  A    between atoms: _151  and  _153
REMARK   60  A    between atoms: _153  and  _154
REMARK   61  A    between atoms: _153  and  _156
REMARK   62  A    between atoms: _156  and  _157
REMARK   63  A    between atoms: _162  and  _163
REMARK   64  A    between atoms: _165  and  _167
REMARK   65  A    between atoms: _167  and  _168
REMARK   66  A    between atoms: _171  and  _173
REMARK   67  A    between atoms: _173  and  _174
REMARK   68  A    between atoms: _176  and  _178
REMARK   69  A    between atoms: _178  and  _179
REMARK   70  A    between atoms: _178  and  _181
REMARK   71  A    between atoms: _181  and  _182
REMARK   72  A    between atoms: _186  and  _187
REMARK   73  A    between atoms: _192  and  _194
REMARK   74  A    between atoms: _194  and  _195
REMARK   75  A    between atoms: _198  and  _199
REMARK   76  A    between atoms: _204  and  _206
REMARK   77  A    between atoms: _206  and  _207
REMARK   78  A    between atoms: _206  and  _209
REMARK   79  A    between atoms: _209  and  _210
REMARK   80  A    between atoms: _215  and  _217
REMARK   81  A    between atoms: _217  and  _218
REMARK   82  A    between atoms: _217  and  _220
REMARK   83  A    between atoms: _220  and  _221
REMARK   84  A    between atoms: _226  and  _227
REMARK   85  A    between atoms: _229  and  _231
REMARK   86  A    between atoms: _231  and  _232
REMARK   87  A    between atoms: _231  and  _234
REMARK   88  A    between atoms: _234  and  _235
REMARK   89  A    between atoms: _235  and  _236
REMARK   90  A    between atoms: _239  and  _241
REMARK   91  A    between atoms: _241  and  _242
REMARK   92  A    between atoms: _241  and  _244
REMARK   93  A    between atoms: _244  and  _245
REMARK   94  A    between atoms: _248  and  _250
REMARK   95  A    between atoms: _250  and  _251
REMARK   96  A    between atoms: _250  and  _253
REMARK   97  A    between atoms: _253  and  _254
REMARK   98  A    between atoms: _257  and  _259
REMARK   99  A    between atoms: _259  and  _260
REMARK  100  A    between atoms: _259  and  _262
REMARK  101  A    between atoms: _262  and  _263
REMARK  102  A    between atoms: _266  and  _268
REMARK  103  A    between atoms: _268  and  _269
REMARK  104  A    between atoms: _268  and  _271
REMARK  105  A    between atoms: _274  and  _276
REMARK  106  A    between atoms: _276  and  _277
REMARK  107  A    between atoms: _279  and  _281
REMARK  108  A    between atoms: _281  and  _282
REMARK  109  A    between atoms: _281  and  _284
REMARK  110  A    between atoms: _284  and  _285
REMARK  111  A    between atoms: _285  and  _286
REMARK  112  A    between atoms: _288  and  _290
REMARK  113  A    between atoms: _290  and  _291
REMARK  114  A    between atoms: _290  and  _293
REMARK  115  A    between atoms: _293  and  _294
REMARK  116  A    between atoms: _296  and  _298
REMARK  117  A    between atoms: _298  and  _299
REMARK  118  A    between atoms: _298  and  _301
REMARK  119  A    between atoms: _301  and  _302
REMARK  120  A    between atoms: _305  and  _307
REMARK  121  A    between atoms: _307  and  _308
REMARK  122  A    between atoms: _307  and  _310
REMARK  123  A    between atoms: _310  and  _311
REMARK  124  A    between atoms: _314  and  _316
REMARK  125  A    between atoms: _316  and  _317
REMARK  126  A    between atoms: _316  and  _319
REMARK  127  A    between atoms: _322  and  _324
REMARK  128  A    between atoms: _324  and  _325
REMARK  129  A    between atoms: _324  and  _327
REMARK  130  A    between atoms: _327  and  _328
REMARK  131  A    between atoms: _331  and  _333
REMARK  132  A    between atoms: _333  and  _334
REMARK  133  A    between atoms: _333  and  _336
REMARK  134  A    between atoms: _336  and  _337
REMARK  135  A    between atoms: _342  and  _344
REMARK  136  A    between atoms: _344  and  _345
REMARK  137  A    between atoms: _344  and  _347
REMARK  138  A    between atoms: _347  and  _348
REMARK  139  A    between atoms: _351  and  _353
REMARK  140  A    between atoms: _353  and  _354
REMARK  141  A    between atoms: _357  and  _359
REMARK  142  A    between atoms: _359  and  _360
REMARK  143  A    between atoms: _363  and  _365
REMARK  144  A    between atoms: _365  and  _366
REMARK  145  A    between atoms: _365  and  _368
REMARK  146  A    between atoms: _368  and  _369
REMARK  147  A    between atoms: _372  and  _374
REMARK  148  A    between atoms: _374  and  _375
REMARK  149  A    between atoms: _374  and  _377
REMARK  150  A    between atoms: _377  and  _378
REMARK  151  A    between atoms: _380  and  _382
REMARK  152  A    between atoms: _382  and  _383
REMARK  153  A    between atoms: _382  and  _385
REMARK  154  A    between atoms: _385  and  _386
REMARK  155  A    between atoms: _391  and  _393
REMARK  156  A    between atoms: _393  and  _394
REMARK  157  A    between atoms: _397  and  _399
REMARK  158  A    between atoms: _399  and  _400
REMARK  159  A    between atoms: _399  and  _402
REMARK  160  A    between atoms: _402  and  _403
REMARK  161  A    between atoms: _403  and  _404
REMARK  162  A    between atoms: _407  and  _409
REMARK  163  A    between atoms: _409  and  _410
REMARK  164  A    between atoms: _409  and  _412
REMARK  165  A    between atoms: _415  and  _417
REMARK  166  A    between atoms: _417  and  _418
REMARK  167  A    between atoms: _417  and  _420
REMARK  168  A    between atoms: _420  and  _421
REMARK  169  A    between atoms: _424  and  _426
REMARK  170  A    between atoms: _426  and  _427
REMARK  171  A    between atoms: _429  and  _431
REMARK  172  A    between atoms: _431  and  _432
REMARK  173  A    between atoms: _431  and  _434
REMARK  174  A    between atoms: _434  and  _435
REMARK  175  A    between atoms: _435  and  _436
REMARK  176  A    between atoms: _439  and  _441
REMARK  177  A    between atoms: _441  and  _442
REMARK  178  A    between atoms: _441  and  _444
REMARK  179  A    between atoms: _444  and  _445
REMARK  180  A    between atoms: _451  and  _453
REMARK  181  A    between atoms: _453  and  _454
REMARK  182  A    between atoms: _453  and  _456
REMARK                            x       y       z     vdW  Elec       q    Type
REMARK                         _______ _______ _______ _____ _____    ______ ____
ROOT
ATOM      1  CA  LEU A   1      51.450  26.674  31.710  0.00  0.00    +0.133 C 
ENDROOT
BRANCH   1   2
ATOM      2  N   LEU A   1      50.012  26.568  31.454  0.00  0.00    -0.239 NA
ATOM      3  H   LEU A   1      49.476  25.771  31.852  0.00  0.00    +0.142 HD
ENDBRANCH   1   2
BRANCH   1   4
ATOM      4  C   LEU A   1      52.256  26.650  30.416  0.00  0.00    +0.224 C 
ATOM      5  O   LEU A   1      53.269  27.343  30.289  0.00  0.00    -0.287 OA
ENDBRANCH   1   4
BRANCH   1   6
ATOM      6  CB  LEU A   1      51.923  25.547  32.634  0.00  0.00    +0.025 C 
BRANCH   6   7
ATOM      7  CG  LEU A   1      51.428  25.621  34.079  0.00  0.00    +0.002 C 
ATOM      8  CD2 LEU A   1      52.127  24.572  34.933  0.00  0.00    +0.000 C 
ATOM      9  CD1 LEU A   1      51.712  26.997  34.631  0.00  0.00    +0.000 C 
ENDBRANCH   6   7
ENDBRANCH   1   6
TORSDOF 4
REMARK  Name = ../refined-set-2016/1g2o/1g2o_pocket.pdb
REMARK  182 active torsions:
REMARK  status: ('A' for Active; 'I' for Inactive)
REMARK    1  A    between atoms: _1  and  _3
REMARK    2  A    between atoms: _3  and  _4
REMARK    3  A    between atoms: _6  and  _8
REMARK    4  A    between atoms: _8  and  _9
REMARK    5  A    between atoms: _8  and  _11
REMARK    6  A    between atoms: _11  and  _12
REMARK    7  A    between atoms: _14  and  _16
REMARK    8  A    between atoms: _16  and  _17
REMARK    9  A    between atoms: _19  and  _21
REMARK   10  A    between atoms: _21  and  _22
REMARK   11  A    between atoms: _25  and  _27
REMARK   12  A    between atoms: _27  and  _28
REMARK   13  A    between atoms: _31  and  _33
REMARK   14  A    between atoms: _33  and  _34
REMARK   15  A    between atoms: _33  and  _36
REMARK   16  A    between atoms: _36  and  _37
REMARK   17  A    between atoms: _42  and  _44
REMARK   18  A    between atoms: _44  and  _45
REMARK   19  A    between atoms: _44  and  _47
REMARK   20  A    between atoms: _47  and  _48
REMARK   21  A    between atoms: _48  and  _49
REMARK   22  A    between atoms: _49  and  _50
REMARK   23  A    between atoms: _59  and  _61
REMARK   24  A    between atoms: _61  and  _62
REMARK   25  A    between atoms: _61  and  _64
REMARK   26  A    between atoms: _64  and  _65
REMARK   27  A    between atoms: _68  and  _70
REMARK   28  A    between atoms: _70  and  _71
REMARK   29  A    between atoms: _70  and  _73
REMARK   30  A    between atoms: _73  and  _74
REMARK   31  A    between atoms: _79  and  _81
REMARK   32  A    between atoms: _81  and  _82
REMARK   33  A    between atoms: _85  and  _87
REMARK   34  A    between atoms: _87  and  _88
REMARK   35  A    between atoms: _87  and  _90
REMARK   36  A    between atoms: _90  and  _91
REMARK   37  A    between atoms: _96  and  _97
REMARK   38  A    between atoms: _99  and  _101
REMARK   39  A    between atoms: _101  and  _102
REMARK   40  A    between atoms: _101  and  _104
REMARK   41  A    between atoms: _104  and  _105
REMARK   42  A    between atoms: _105  and  _106
REMARK   43  A    between atoms: _109  and  _111
REMARK   44  A    between atoms: _111  and  _112
REMARK   45  A    between atoms: _111  and  _114
REMARK   46  A    between atoms: _114  and  _115
REMARK   47  A    between atoms: _120  and  _122
REMARK   48  A    between atoms: _122  and  _123
REMARK   49  A    between atoms: _126  and  _128
REMARK   50  A    between atoms: _128  and  _129
REMARK   51  A    between atoms: _132  and  _134
REMARK   52  A    between atoms: _134  and  _135
REMARK   53  A    between atoms: _137  and  _139
REMARK   54  A    between atoms: _139  and  _140
REMARK   55  A    between atoms: _142  and  _144
REMARK   56  A    between atoms: _144  and  _145
REMARK   57  A    between atoms: _144  and  _147
REMARK   58  A    between atoms: _147  and  _148
REMARK   59  A    between atoms: _151  and  _153
REMARK   60  A    between atoms: _153  and  _154
REMARK   61  A    between atoms: _153  and  _156
REMARK   62  A    between atoms: _156  and  _157
REMARK   63  A    between atoms: _162  and  _163
REMARK   64  A    between atoms: _165  and  _167
REMARK   65  A    between atoms: _167  and  _168
REMARK   66  A    between atoms: _171  and  _173
REMARK   67  A    between atoms: _173  and  _174
REMARK   68  A    between atoms: _176  and  _178
REMARK   69  A    between atoms: _178  and  _179
REMARK   70  A    between atoms: _178  and  _181
REMARK   71  A    between atoms: _181  and  _182
REMARK   72  A    between atoms: _186  and  _187
REMARK   73  A    between atoms: _192  and  _194
REMARK   74  A    between atoms: _194  and  _195
REMARK   75  A    between atoms: _198  and  _199
REMARK   76  A    between atoms: _204  and  _206
REMARK   77  A    between atoms: _206  and  _207
REMARK   78  A    between atoms: _206  and  _209
REMARK   79  A    between atoms: _209  and  _210
REMARK   80  A    between atoms: _215  and  _217
REMARK   81  A    between atoms: _217  and  _218
REMARK   82  A    between atoms: _217  and  _220
REMARK   83  A    between atoms: _220  and  _221
REMARK   84  A    between atoms: _226  and  _227
REMARK   85  A    between atoms: _229  and  _231
REMARK   86  A    between atoms: _231  and  _232
REMARK   87  A    between atoms: _231  and  _234
REMARK   88  A    between atoms: _234  and  _235
REMARK   89  A    between atoms: _235  and  _236
REMARK   90  A    between atoms: _239  and  _241
REMARK   91  A    between atoms: _241  and  _242
REMARK   92  A    between atoms: _241  and  _244
REMARK   93  A    between atoms: _244  and  _245
REMARK   94  A    between atoms: _248  and  _250
REMARK   95  A    between atoms: _250  and  _251
REMARK   96  A    between atoms: _250  and  _253
REMARK   97  A    between atoms: _253  and  _254
REMARK   98  A    between atoms: _257  and  _259
REMARK   99  A    between atoms: _259  and  _260
REMARK  100  A    between atoms: _259  and  _262
REMARK  101  A    between atoms: _262  and  _263
REMARK  102  A    between atoms: _266  and  _268
REMARK  103  A    between atoms: _268  and  _269
REMARK  104  A    between atoms: _268  and  _271
REMARK  105  A    between atoms: _274  and  _276
REMARK  106  A    between atoms: _276  and  _277
REMARK  107  A    between atoms: _279  and  _281
REMARK  108  A    between atoms: _281  and  _282
REMARK  109  A    between atoms: _281  and  _284
REMARK  110  A    between atoms: _284  and  _285
REMARK  111  A    between atoms: _285  and  _286
REMARK  112  A    between atoms: _288  and  _290
REMARK  113  A    between atoms: _290  and  _291
REMARK  114  A    between atoms: _290  and  _293
REMARK  115  A    between atoms: _293  and  _294
REMARK  116  A    between atoms: _296  and  _298
REMARK  117  A    between atoms: _298  and  _299
REMARK  118  A    between atoms: _298  and  _301
REMARK  119  A    between atoms: _301  and  _302
REMARK  120  A    between atoms: _305  and  _307
REMARK  121  A    between atoms: _307  and  _308
REMARK  122  A    between atoms: _307  and  _310
REMARK  123  A    between atoms: _310  and  _311
REMARK  124  A    between atoms: _314  and  _316
REMARK  125  A    between atoms: _316  and  _317
REMARK  126  A    between atoms: _316  and  _319
REMARK  127  A    between atoms: _322  and  _324
REMARK  128  A    between atoms: _324  and  _325
REMARK  129  A    between atoms: _324  and  _327
REMARK  130  A    between atoms: _327  and  _328
REMARK  131  A    between atoms: _331  and  _333
REMARK  132  A    between atoms: _333  and  _334
REMARK  133  A    between atoms: _333  and  _336
REMARK  134  A    between atoms: _336  and  _337
REMARK  135  A    between atoms: _342  and  _344
REMARK  136  A    between atoms: _344  and  _345
REMARK  137  A    between atoms: _344  and  _347
REMARK  138  A    between atoms: _347  and  _348
REMARK  139  A    between atoms: _351  and  _353
REMARK  140  A    between atoms: _353  and  _354
REMARK  141  A    between atoms: _357  and  _359
REMARK  142  A    between atoms: _359  and  _360
REMARK  143  A    between atoms: _363  and  _365
REMARK  144  A    between atoms: _365  and  _366
REMARK  145  A    between atoms: _365  and  _368
REMARK  146  A    between atoms: _368  and  _369
REMARK  147  A    between atoms: _372  and  _374
REMARK  148  A    between atoms: _374  and  _375
REMARK  149  A    between atoms: _374  and  _377
REMARK  150  A    between atoms: _377  and  _378
REMARK  151  A    between atoms: _380  and  _382
REMARK  152  A    between atoms: _382  and  _383
REMARK  153  A    between atoms: _382  and  _385
REMARK  154  A    between atoms: _385  and  _386
REMARK  155  A    between atoms: _391  and  _393
REMARK  156  A    between atoms: _393  and  _394
REMARK  157  A    between atoms: _397  and  _399
REMARK  158  A    between atoms: _399  and  _400
REMARK  159  A    between atoms: _399  and  _402
REMARK  160  A    between atoms: _402  and  _403
REMARK  161  A    between atoms: _403  and  _404
REMARK  162  A    between atoms: _407  and  _409
REMARK  163  A    between atoms: _409  and  _410
REMARK  164  A    between atoms: _409  and  _412
REMARK  165  A    between atoms: _415  and  _417
REMARK  166  A    between atoms: _417  and  _418
REMARK  167  A    between atoms: _417  and  _420
REMARK  168  A    between atoms: _420  and  _421
REMARK  169  A    between atoms: _424  and  _426
REMARK  170  A    between atoms: _426  and  _427
REMARK  171  A    between atoms: _429  and  _431
REMARK  172  A    between atoms: _431  and  _432
REMARK  173  A    between atoms: _431  and  _434
REMARK  174  A    between atoms: _434  and  _435
REMARK  175  A    between atoms: _435  and  _436
REMARK  176  A    between atoms: _439  and  _441
REMARK  177  A    between atoms: _441  and  _442
REMARK  178  A    between atoms: _441  and  _444
REMARK  179  A    between atoms: _444  and  _445
REMARK  180  A    between atoms: _451  and  _453
REMARK  181  A    between atoms: _453  and  _454
REMARK  182  A    between atoms: _453  and  _456
REMARK                            x       y       z     vdW  Elec       q    Type
REMARK                         _______ _______ _______ _____ _____    ______ ____
ROOT
ATOM      1  C   GLY A   3      56.403  22.095  41.222  0.00  0.00    +0.243 C 
ATOM      2  N   MET A   4      56.602  21.649  42.462  0.00  0.00    -0.297 N 
ATOM      3  H   MET A   4      57.120  20.757  42.597  0.00  0.00    +0.150 HD
ATOM      4  O   GLY A   3      55.846  23.167  40.971  0.00  0.00    -0.273 OA
ENDROOT
BRANCH   2   5
ATOM      5  CA  MET A   4      56.119  22.368  43.639  0.00  0.00    +0.149 C 
BRANCH   5   6
ATOM      6  C   MET A   4      57.241  22.736  44.610  0.00  0.00    +0.241 C 
ATOM      7  O   MET A   4      57.066  22.680  45.833  0.00  0.00    -0.273 OA
ATOM      8  N   SER A   5      58.395  23.113  44.076  0.00  0.00    -0.295 N 
ATOM      9  H   SER A   5      58.497  23.148  43.042  0.00  0.00    +0.150 HD
BRANCH   8  10
ATOM     10  CA  SER A   5      59.520  23.479  44.925  0.00  0.00    +0.178 C 
BRANCH  10  11
ATOM     11  C   SER A   5      60.471  24.354  44.135  0.00  0.00    +0.243 C 
ATOM     12  N   THR A   6      61.722  24.354  44.585  0.00  0.00    -0.296 N 
ATOM     13  H   THR A   6      61.923  23.842  45.467  0.00  0.00    +0.150 HD
ATOM     14  O   SER A   5      60.075  25.028  43.185  0.00  0.00    -0.273 OA
BRANCH  12  15
ATOM     15  CA  THR A   6      62.826  25.025  43.921  0.00  0.00    +0.164 C 
BRANCH  15  16
ATOM     16  CB  THR A   6      63.042  24.342  42.558  0.00  0.00    +0.136 C 
ATOM     17  CG2 THR A   6      64.307  24.844  41.887  0.00  0.00    +0.034 C 
BRANCH  16  18
ATOM     18  OG1 THR A   6      63.150  22.927  42.767  0.00  0.00    -0.382 OA
ATOM     19  HG1 THR A   6      63.289  22.476  41.897  0.00  0.00    +0.210 HD
ENDBRANCH  16  18
ENDBRANCH  15  16
BRANCH  15  20
ATOM     20  C   THR A   6      62.888  26.541  43.724  0.00  0.00    +0.229 C 
ATOM     21  O   THR A   6      63.918  27.145  44.000  0.00  0.00    -0.286 OA
ENDBRANCH  15  20
ENDBRANCH  12  15
ENDBRANCH  10  11
BRANCH  10  22
ATOM     22  CB  SER A   5      60.280  22.221  45.362  0.00  0.00    +0.166 C 
BRANCH  22  23
ATOM     23  OG  SER A   5      60.929  21.603  44.252  0.00  0.00    -0.380 OA
ATOM     24  H   SER A   5      61.572  22.240  43.851  0.00  0.00    +0.211 HD
ENDBRANCH  22  23
ENDBRANCH  10  22
ENDBRANCH   8  10
ENDBRANCH   5   6
BRANCH   5  25
ATOM     25  CB  MET A   4      55.092  21.508  44.376  0.00  0.00    +0.041 C 
BRANCH  25  26
ATOM     26  CG  MET A   4      54.038  20.874  43.484  0.00  0.00    +0.060 C 
BRANCH  26  27
ATOM     27  SD  MET A   4      53.184  19.574  44.382  0.00  0.00    -0.139 S 
ATOM     28  CE  MET A   4      51.999  19.020  43.169  0.00  0.00    +0.069 C 
ENDBRANCH  26  27
ENDBRANCH  25  26
ENDBRANCH   5  25
ENDBRANCH   2   5
BRANCH   1  29
ATOM     29  CA  GLY A   3      56.928  21.227  40.097  0.00  0.00    +0.176 C 
BRANCH  29  31
ATOM     30  C   VAL A   2      56.531  21.083  37.706  0.00  0.00    +0.241 C 
ATOM     31  N   GLY A   3      56.654  21.827  38.803  0.00  0.00    -0.295 N 
ATOM     32  H   GLY A   3      56.552  22.860  38.732  0.00  0.00    +0.150 HD
ATOM     33  O   VAL A   2      56.631  19.852  37.710  0.00  0.00    -0.273 OA
BRANCH  30  34
ATOM     34  CA  VAL A   2      56.252  21.848  36.413  0.00  0.00    +0.148 C 
BRANCH  34  36
ATOM     35  C   LEU A   1      57.692  22.231  34.486  0.00  0.00    +0.238 C 
ATOM     36  N   VAL A   2      57.104  21.377  35.319  0.00  0.00    -0.297 N 
ATOM     37  H   VAL A   2      57.252  20.356  35.191  0.00  0.00    +0.150 HD
ATOM     38  O   LEU A   1      57.552  23.449  34.566  0.00  0.00    -0.274 OA
BRANCH  35  39
ATOM     39  CA  LEU A   1      58.587  21.640  33.404  0.00  0.00    +0.145 C 
BRANCH  39  40
ATOM     40  N   LEU A   1      58.586  22.549  32.262  0.00  0.00    -0.238 NA
ATOM     41  H   LEU A   1      58.650  23.571  32.446  0.00  0.00    +0.142 HD
ENDBRANCH  39  40
BRANCH  39  42
ATOM     42  CB  LEU A   1      60.006  21.527  33.967  0.00  0.00    +0.026 C 
BRANCH  42  43
ATOM     43  CG  LEU A   1      61.124  21.107  33.008  0.00  0.00    +0.002 C 
ATOM     44  CD2 LEU A   1      62.471  21.568  33.558  0.00  0.00    +0.000 C 
ATOM     45  CD1 LEU A   1      61.090  19.597  32.821  0.00  0.00    +0.000 C 
ENDBRANCH  42  43
ENDBRANCH  39  42
ENDBRANCH  35  39
ENDBRANCH  34  36
BRANCH  34  46
ATOM     46  CB  VAL A   2      54.745  21.734  36.062  0.00  0.00    +0.027 C 
ATOM     47  CG2 VAL A   2      53.900  22.363  37.175  0.00  0.00    +0.002 C 
ATOM     48  CG1 VAL A   2      54.361  20.282  35.845  0.00  0.00    +0.002 C 
ENDBRANCH  34  46
ENDBRANCH  30  34
ENDBRANCH  29  31
ENDBRANCH   1  29
TORSDOF 22
REMARK  Name = ../refined-set-2016/1g2o/1g2o_pocket.pdb
REMARK  182 active torsions:
REMARK  status: ('A' for Active; 'I' for Inactive)
REMARK    1  A    between atoms: _1  and  _3
REMARK    2  A    between atoms: _3  and  _4
REMARK    3  A    between atoms: _6  and  _8
REMARK    4  A    between atoms: _8  and  _9
REMARK    5  A    between atoms: _8  and  _11
REMARK    6  A    between atoms: _11  and  _12
REMARK    7  A    between atoms: _14  and  _16
REMARK    8  A    between atoms: _16  and  _17
REMARK    9  A    between atoms: _19  and  _21
REMARK   10  A    between atoms: _21  and  _22
REMARK   11  A    between atoms: _25  and  _27
REMARK   12  A    between atoms: _27  and  _28
REMARK   13  A    between atoms: _31  and  _33
REMARK   14  A    between atoms: _33  and  _34
REMARK   15  A    between atoms: _33  and  _36
REMARK   16  A    between atoms: _36  and  _37
REMARK   17  A    between atoms: _42  and  _44
REMARK   18  A    between atoms: _44  and  _45
REMARK   19  A    between atoms: _44  and  _47
REMARK   20  A    between atoms: _47  and  _48
REMARK   21  A    between atoms: _48  and  _49
REMARK   22  A    between atoms: _49  and  _50
REMARK   23  A    between atoms: _59  and  _61
REMARK   24  A    between atoms: _61  and  _62
REMARK   25  A    between atoms: _61  and  _64
REMARK   26  A    between atoms: _64  and  _65
REMARK   27  A    between atoms: _68  and  _70
REMARK   28  A    between atoms: _70  and  _71
REMARK   29  A    between atoms: _70  and  _73
REMARK   30  A    between atoms: _73  and  _74
REMARK   31  A    between atoms: _79  and  _81
REMARK   32  A    between atoms: _81  and  _82
REMARK   33  A    between atoms: _85  and  _87
REMARK   34  A    between atoms: _87  and  _88
REMARK   35  A    between atoms: _87  and  _90
REMARK   36  A    between atoms: _90  and  _91
REMARK   37  A    between atoms: _96  and  _97
REMARK   38  A    between atoms: _99  and  _101
REMARK   39  A    between atoms: _101  and  _102
REMARK   40  A    between atoms: _101  and  _104
REMARK   41  A    between atoms: _104  and  _105
REMARK   42  A    between atoms: _105  and  _106
REMARK   43  A    between atoms: _109  and  _111
REMARK   44  A    between atoms: _111  and  _112
REMARK   45  A    between atoms: _111  and  _114
REMARK   46  A    between atoms: _114  and  _115
REMARK   47  A    between atoms: _120  and  _122
REMARK   48  A    between atoms: _122  and  _123
REMARK   49  A    between atoms: _126  and  _128
REMARK   50  A    between atoms: _128  and  _129
REMARK   51  A    between atoms: _132  and  _134
REMARK   52  A    between atoms: _134  and  _135
REMARK   53  A    between atoms: _137  and  _139
REMARK   54  A    between atoms: _139  and  _140
REMARK   55  A    between atoms: _142  and  _144
REMARK   56  A    between atoms: _144  and  _145
REMARK   57  A    between atoms: _144  and  _147
REMARK   58  A    between atoms: _147  and  _148
REMARK   59  A    between atoms: _151  and  _153
REMARK   60  A    between atoms: _153  and  _154
REMARK   61  A    between atoms: _153  and  _156
REMARK   62  A    between atoms: _156  and  _157
REMARK   63  A    between atoms: _162  and  _163
REMARK   64  A    between atoms: _165  and  _167
REMARK   65  A    between atoms: _167  and  _168
REMARK   66  A    between atoms: _171  and  _173
REMARK   67  A    between atoms: _173  and  _174
REMARK   68  A    between atoms: _176  and  _178
REMARK   69  A    between atoms: _178  and  _179
REMARK   70  A    between atoms: _178  and  _181
REMARK   71  A    between atoms: _181  and  _182
REMARK   72  A    between atoms: _186  and  _187
REMARK   73  A    between atoms: _192  and  _194
REMARK   74  A    between atoms: _194  and  _195
REMARK   75  A    between atoms: _198  and  _199
REMARK   76  A    between atoms: _204  and  _206
REMARK   77  A    between atoms: _206  and  _207
REMARK   78  A    between atoms: _206  and  _209
REMARK   79  A    between atoms: _209  and  _210
REMARK   80  A    between atoms: _215  and  _217
REMARK   81  A    between atoms: _217  and  _218
REMARK   82  A    between atoms: _217  and  _220
REMARK   83  A    between atoms: _220  and  _221
REMARK   84  A    between atoms: _226  and  _227
REMARK   85  A    between atoms: _229  and  _231
REMARK   86  A    between atoms: _231  and  _232
REMARK   87  A    between atoms: _231  and  _234
REMARK   88  A    between atoms: _234  and  _235
REMARK   89  A    between atoms: _235  and  _236
REMARK   90  A    between atoms: _239  and  _241
REMARK   91  A    between atoms: _241  and  _242
REMARK   92  A    between atoms: _241  and  _244
REMARK   93  A    between atoms: _244  and  _245
REMARK   94  A    between atoms: _248  and  _250
REMARK   95  A    between atoms: _250  and  _251
REMARK   96  A    between atoms: _250  and  _253
REMARK   97  A    between atoms: _253  and  _254
REMARK   98  A    between atoms: _257  and  _259
REMARK   99  A    between atoms: _259  and  _260
REMARK  100  A    between atoms: _259  and  _262
REMARK  101  A    between atoms: _262  and  _263
REMARK  102  A    between atoms: _266  and  _268
REMARK  103  A    between atoms: _268  and  _269
REMARK  104  A    between atoms: _268  and  _271
REMARK  105  A    between atoms: _274  and  _276
REMARK  106  A    between atoms: _276  and  _277
REMARK  107  A    between atoms: _279  and  _281
REMARK  108  A    between atoms: _281  and  _282
REMARK  109  A    between atoms: _281  and  _284
REMARK  110  A    between atoms: _284  and  _285
REMARK  111  A    between atoms: _285  and  _286
REMARK  112  A    between atoms: _288  and  _290
REMARK  113  A    between atoms: _290  and  _291
REMARK  114  A    between atoms: _290  and  _293
REMARK  115  A    between atoms: _293  and  _294
REMARK  116  A    between atoms: _296  and  _298
REMARK  117  A    between atoms: _298  and  _299
REMARK  118  A    between atoms: _298  and  _301
REMARK  119  A    between atoms: _301  and  _302
REMARK  120  A    between atoms: _305  and  _307
REMARK  121  A    between atoms: _307  and  _308
REMARK  122  A    between atoms: _307  and  _310
REMARK  123  A    between atoms: _310  and  _311
REMARK  124  A    between atoms: _314  and  _316
REMARK  125  A    between atoms: _316  and  _317
REMARK  126  A    between atoms: _316  and  _319
REMARK  127  A    between atoms: _322  and  _324
REMARK  128  A    between atoms: _324  and  _325
REMARK  129  A    between atoms: _324  and  _327
REMARK  130  A    between atoms: _327  and  _328
REMARK  131  A    between atoms: _331  and  _333
REMARK  132  A    between atoms: _333  and  _334
REMARK  133  A    between atoms: _333  and  _336
REMARK  134  A    between atoms: _336  and  _337
REMARK  135  A    between atoms: _342  and  _344
REMARK  136  A    between atoms: _344  and  _345
REMARK  137  A    between atoms: _344  and  _347
REMARK  138  A    between atoms: _347  and  _348
REMARK  139  A    between atoms: _351  and  _353
REMARK  140  A    between atoms: _353  and  _354
REMARK  141  A    between atoms: _357  and  _359
REMARK  142  A    between atoms: _359  and  _360
REMARK  143  A    between atoms: _363  and  _365
REMARK  144  A    between atoms: _365  and  _366
REMARK  145  A    between atoms: _365  and  _368
REMARK  146  A    between atoms: _368  and  _369
REMARK  147  A    between atoms: _372  and  _374
REMARK  148  A    between atoms: _374  and  _375
REMARK  149  A    between atoms: _374  and  _377
REMARK  150  A    between atoms: _377  and  _378
REMARK  151  A    between atoms: _380  and  _382
REMARK  152  A    between atoms: _382  and  _383
REMARK  153  A    between atoms: _382  and  _385
REMARK  154  A    between atoms: _385  and  _386
REMARK  155  A    between atoms: _391  and  _393
REMARK  156  A    between atoms: _393  and  _394
REMARK  157  A    between atoms: _397  and  _399
REMARK  158  A    between atoms: _399  and  _400
REMARK  159  A    between atoms: _399  and  _402
REMARK  160  A    between atoms: _402  and  _403
REMARK  161  A    between atoms: _403  and  _404
REMARK  162  A    between atoms: _407  and  _409
REMARK  163  A    between atoms: _409  and  _410
REMARK  164  A    between atoms: _409  and  _412
REMARK  165  A    between atoms: _415  and  _417
REMARK  166  A    between atoms: _417  and  _418
REMARK  167  A    between atoms: _417  and  _420
REMARK  168  A    between atoms: _420  and  _421
REMARK  169  A    between atoms: _424  and  _426
REMARK  170  A    between atoms: _426  and  _427
REMARK  171  A    between atoms: _429  and  _431
REMARK  172  A    between atoms: _431  and  _432
REMARK  173  A    between atoms: _431  and  _434
REMARK  174  A    between atoms: _434  and  _435
REMARK  175  A    between atoms: _435  and  _436
REMARK  176  A    between atoms: _439  and  _441
REMARK  177  A    between atoms: _441  and  _442
REMARK  178  A    between atoms: _441  and  _444
REMARK  179  A    between atoms: _444  and  _445
REMARK  180  A    between atoms: _451  and  _453
REMARK  181  A    between atoms: _453  and  _454
REMARK  182  A    between atoms: _453  and  _456
REMARK                            x       y       z     vdW  Elec       q    Type
REMARK                         _______ _______ _______ _____ _____    ______ ____
ROOT
ATOM      1  CA  ASN A   4      56.094  11.980  34.565  0.00  0.00    +0.158 C 
ENDROOT
BRANCH   1   2
ATOM      2  C   ASN A   4      55.753  13.048  33.535  0.00  0.00    +0.241 C 
ATOM      3  O   ASN A   4      56.286  14.157  33.588  0.00  0.00    -0.273 OA
ATOM      4  N   LEU A   5      54.885  12.718  32.586  0.00  0.00    -0.297 N 
ATOM      5  H   LEU A   5      54.508  11.750  32.532  0.00  0.00    +0.150 HD
BRANCH   4   6
ATOM      6  CA  LEU A   5      54.468  13.724  31.624  0.00  0.00    +0.149 C 
BRANCH   6   7
ATOM      7  C   LEU A   5      53.392  14.504  32.370  0.00  0.00    +0.241 C 
ATOM      8  O   LEU A   5      52.648  13.928  33.175  0.00  0.00    -0.273 OA
ATOM      9  N   ALA A   6      53.338  15.812  32.134  0.00  0.00    -0.297 N 
ATOM     10  H   ALA A   6      54.001  16.230  31.450  0.00  0.00    +0.150 HD
BRANCH   9  11
ATOM     11  CA  ALA A   6      52.375  16.676  32.807  0.00  0.00    +0.149 C 
ATOM     12  CB  ALA A   6      52.521  18.101  32.300  0.00  0.00    +0.031 C 
BRANCH  11  13
ATOM     13  C   ALA A   6      50.935  16.196  32.641  0.00  0.00    +0.241 C 
ATOM     14  N   ALA A   7      50.087  16.568  33.596  0.00  0.00    -0.298 N 
ATOM     15  H   ALA A   7      50.435  17.163  34.375  0.00  0.00    +0.150 HD
ATOM     16  O   ALA A   6      50.601  15.508  31.675  0.00  0.00    -0.273 OA
BRANCH  14  17
ATOM     17  CA  ALA A   7      48.685  16.167  33.584  0.00  0.00    +0.137 C 
ATOM     18  CB  ALA A   7      47.927  16.886  34.702  0.00  0.00    +0.030 C 
BRANCH  17  19
ATOM     19  C   ALA A   7      48.007  16.438  32.248  0.00  0.00    +0.227 C 
ATOM     20  O   ALA A   7      48.142  17.524  31.682  0.00  0.00    -0.286 OA
ENDBRANCH  17  19
ENDBRANCH  14  17
ENDBRANCH  11  13
ENDBRANCH   9  11
ENDBRANCH   6   7
BRANCH   6  21
ATOM     21  CB  LEU A   5      53.906  13.079  30.355  0.00  0.00    +0.029 C 
BRANCH  21  22
ATOM     22  CG  LEU A   5      54.962  12.331  29.530  0.00  0.00    +0.002 C 
ATOM     23  CD2 LEU A   5      56.138  13.258  29.237  0.00  0.00    +0.000 C 
ATOM     24  CD1 LEU A   5      54.348  11.840  28.224  0.00  0.00    +0.000 C 
ENDBRANCH  21  22
ENDBRANCH   6  21
ENDBRANCH   4   6
ENDBRANCH   1   2
BRANCH   1  27
ATOM     25  C   THR A   3      58.020  11.410  35.939  0.00  0.00    +0.243 C 
ATOM     26  O   THR A   3      57.548  10.312  36.248  0.00  0.00    -0.273 OA
ATOM     27  N   ASN A   4      57.402  12.266  35.132  0.00  0.00    -0.297 N 
ATOM     28  H   ASN A   4      57.867  13.166  34.899  0.00  0.00    +0.150 HD
BRANCH  25  29
ATOM     29  CA  THR A   3      59.370  11.852  36.482  0.00  0.00    +0.176 C 
BRANCH  29  31
ATOM     30  C   VAL A   2      60.621  13.034  34.755  0.00  0.00    +0.241 C 
ATOM     31  N   THR A   3      59.890  13.066  35.864  0.00  0.00    -0.295 N 
ATOM     32  H   THR A   3      59.682  13.985  36.305  0.00  0.00    +0.150 HD
ATOM     33  O   VAL A   2      60.903  11.991  34.163  0.00  0.00    -0.273 OA
BRANCH  30  34
ATOM     34  CA  VAL A   2      61.127  14.382  34.258  0.00  0.00    +0.148 C 
BRANCH  34  37
ATOM     35  C   LEU A   1      62.776  14.704  35.995  0.00  0.00    +0.238 C 
ATOM     36  O   LEU A   1      61.888  14.830  36.840  0.00  0.00    -0.274 OA
ATOM     37  N   VAL A   2      62.510  14.505  34.708  0.00  0.00    -0.297 N 
ATOM     38  H   VAL A   2      63.288  14.437  34.021  0.00  0.00    +0.150 HD
BRANCH  35  39
ATOM     39  CA  LEU A   1      64.245  14.822  36.401  0.00  0.00    +0.145 C 
BRANCH  39  40
ATOM     40  N   LEU A   1      64.315  16.163  36.948  0.00  0.00    -0.238 NA
ATOM     41  H   LEU A   1      63.888  16.362  37.875  0.00  0.00    +0.142 HD
ENDBRANCH  39  40
BRANCH  39  42
ATOM     42  CB  LEU A   1      64.582  13.774  37.463  0.00  0.00    +0.026 C 
BRANCH  42  43
ATOM     43  CG  LEU A   1      64.533  12.330  36.958  0.00  0.00    +0.002 C 
ATOM     44  CD2 LEU A   1      64.814  11.382  38.108  0.00  0.00    +0.000 C 
ATOM     45  CD1 LEU A   1      65.556  12.138  35.840  0.00  0.00    +0.000 C 
ENDBRANCH  42  43
ENDBRANCH  39  42
ENDBRANCH  35  39
ENDBRANCH  34  37
BRANCH  34  46
ATOM     46  CB  VAL A   2      61.028  14.461  32.720  0.00  0.00    +0.027 C 
ATOM     47  CG2 VAL A   2      59.587  14.270  32.276  0.00  0.00    +0.002 C 
ATOM     48  CG1 VAL A   2      61.550  15.807  32.239  0.00  0.00    +0.002 C 
ENDBRANCH  34  46
ENDBRANCH  30  34
ENDBRANCH  29  31
BRANCH  29  49
ATOM     49  CB  THR A   3      59.246  12.038  38.009  0.00  0.00    +0.137 C 
ATOM     50  CG2 THR A   3      60.626  12.116  38.653  0.00  0.00    +0.034 C 
BRANCH  49  51
ATOM     51  OG1 THR A   3      58.526  13.247  38.284  0.00  0.00    -0.382 OA
ATOM     52  HG1 THR A   3      57.623  13.190  37.883  0.00  0.00    +0.210 HD
ENDBRANCH  49  51
ENDBRANCH  29  49
ENDBRANCH  25  29
ENDBRANCH   1  27
BRANCH   1  53
ATOM     53  CB  ASN A   4      55.034  12.020  35.668  0.00  0.00    +0.114 C 
BRANCH  53  54
ATOM     54  CG  ASN A   4      54.996  13.366  36.386  0.00  0.00    +0.222 C 
ATOM     55  OD1 ASN A   4      55.838  13.655  37.238  0.00  0.00    -0.275 OA
ATOM     56  ND2 ASN A   4      54.031  14.202  36.024  0.00  0.00    -0.329 N 
ATOM     57 HD21 ASN A   4      53.965  15.142  36.464  0.00  0.00    +0.145 HD
ATOM     58 HD22 ASN A   4      53.341  13.917  35.300  0.00  0.00    +0.145 HD
ENDBRANCH  53  54
ENDBRANCH   1  53
TORSDOF 23
REMARK  Name = ../refined-set-2016/1g2o/1g2o_pocket.pdb
REMARK  182 active torsions:
REMARK  status: ('A' for Active; 'I' for Inactive)
REMARK    1  A    between atoms: _1  and  _3
REMARK    2  A    between atoms: _3  and  _4
REMARK    3  A    between atoms: _6  and  _8
REMARK    4  A    between atoms: _8  and  _9
REMARK    5  A    between atoms: _8  and  _11
REMARK    6  A    between atoms: _11  and  _12
REMARK    7  A    between atoms: _14  and  _16
REMARK    8  A    between atoms: _16  and  _17
REMARK    9  A    between atoms: _19  and  _21
REMARK   10  A    between atoms: _21  and  _22
REMARK   11  A    between atoms: _25  and  _27
REMARK   12  A    between atoms: _27  and  _28
REMARK   13  A    between atoms: _31  and  _33
REMARK   14  A    between atoms: _33  and  _34
REMARK   15  A    between atoms: _33  and  _36
REMARK   16  A    between atoms: _36  and  _37
REMARK   17  A    between atoms: _42  and  _44
REMARK   18  A    between atoms: _44  and  _45
REMARK   19  A    between atoms: _44  and  _47
REMARK   20  A    between atoms: _47  and  _48
REMARK   21  A    between atoms: _48  and  _49
REMARK   22  A    between atoms: _49  and  _50
REMARK   23  A    between atoms: _59  and  _61
REMARK   24  A    between atoms: _61  and  _62
REMARK   25  A    between atoms: _61  and  _64
REMARK   26  A    between atoms: _64  and  _65
REMARK   27  A    between atoms: _68  and  _70
REMARK   28  A    between atoms: _70  and  _71
REMARK   29  A    between atoms: _70  and  _73
REMARK   30  A    between atoms: _73  and  _74
REMARK   31  A    between atoms: _79  and  _81
REMARK   32  A    between atoms: _81  and  _82
REMARK   33  A    between atoms: _85  and  _87
REMARK   34  A    between atoms: _87  and  _88
REMARK   35  A    between atoms: _87  and  _90
REMARK   36  A    between atoms: _90  and  _91
REMARK   37  A    between atoms: _96  and  _97
REMARK   38  A    between atoms: _99  and  _101
REMARK   39  A    between atoms: _101  and  _102
REMARK   40  A    between atoms: _101  and  _104
REMARK   41  A    between atoms: _104  and  _105
REMARK   42  A    between atoms: _105  and  _106
REMARK   43  A    between atoms: _109  and  _111
REMARK   44  A    between atoms: _111  and  _112
REMARK   45  A    between atoms: _111  and  _114
REMARK   46  A    between atoms: _114  and  _115
REMARK   47  A    between atoms: _120  and  _122
REMARK   48  A    between atoms: _122  and  _123
REMARK   49  A    between atoms: _126  and  _128
REMARK   50  A    between atoms: _128  and  _129
REMARK   51  A    between atoms: _132  and  _134
REMARK   52  A    between atoms: _134  and  _135
REMARK   53  A    between atoms: _137  and  _139
REMARK   54  A    between atoms: _139  and  _140
REMARK   55  A    between atoms: _142  and  _144
REMARK   56  A    between atoms: _144  and  _145
REMARK   57  A    between atoms: _144  and  _147
REMARK   58  A    between atoms: _147  and  _148
REMARK   59  A    between atoms: _151  and  _153
REMARK   60  A    between atoms: _153  and  _154
REMARK   61  A    between atoms: _153  and  _156
REMARK   62  A    between atoms: _156  and  _157
REMARK   63  A    between atoms: _162  and  _163
REMARK   64  A    between atoms: _165  and  _167
REMARK   65  A    between atoms: _167  and  _168
REMARK   66  A    between atoms: _171  and  _173
REMARK   67  A    between atoms: _173  and  _174
REMARK   68  A    between atoms: _176  and  _178
REMARK   69  A    between atoms: _178  and  _179
REMARK   70  A    between atoms: _178  and  _181
REMARK   71  A    between atoms: _181  and  _182
REMARK   72  A    between atoms: _186  and  _187
REMARK   73  A    between atoms: _192  and  _194
REMARK   74  A    between atoms: _194  and  _195
REMARK   75  A    between atoms: _198  and  _199
REMARK   76  A    between atoms: _204  and  _206
REMARK   77  A    between atoms: _206  and  _207
REMARK   78  A    between atoms: _206  and  _209
REMARK   79  A    between atoms: _209  and  _210
REMARK   80  A    between atoms: _215  and  _217
REMARK   81  A    between atoms: _217  and  _218
REMARK   82  A    between atoms: _217  and  _220
REMARK   83  A    between atoms: _220  and  _221
REMARK   84  A    between atoms: _226  and  _227
REMARK   85  A    between atoms: _229  and  _231
REMARK   86  A    between atoms: _231  and  _232
REMARK   87  A    between atoms: _231  and  _234
REMARK   88  A    between atoms: _234  and  _235
REMARK   89  A    between atoms: _235  and  _236
REMARK   90  A    between atoms: _239  and  _241
REMARK   91  A    between atoms: _241  and  _242
REMARK   92  A    between atoms: _241  and  _244
REMARK   93  A    between atoms: _244  and  _245
REMARK   94  A    between atoms: _248  and  _250
REMARK   95  A    between atoms: _250  and  _251
REMARK   96  A    between atoms: _250  and  _253
REMARK   97  A    between atoms: _253  and  _254
REMARK   98  A    between atoms: _257  and  _259
REMARK   99  A    between atoms: _259  and  _260
REMARK  100  A    between atoms: _259  and  _262
REMARK  101  A    between atoms: _262  and  _263
REMARK  102  A    between atoms: _266  and  _268
REMARK  103  A    between atoms: _268  and  _269
REMARK  104  A    between atoms: _268  and  _271
REMARK  105  A    between atoms: _274  and  _276
REMARK  106  A    between atoms: _276  and  _277
REMARK  107  A    between atoms: _279  and  _281
REMARK  108  A    between atoms: _281  and  _282
REMARK  109  A    between atoms: _281  and  _284
REMARK  110  A    between atoms: _284  and  _285
REMARK  111  A    between atoms: _285  and  _286
REMARK  112  A    between atoms: _288  and  _290
REMARK  113  A    between atoms: _290  and  _291
REMARK  114  A    between atoms: _290  and  _293
REMARK  115  A    between atoms: _293  and  _294
REMARK  116  A    between atoms: _296  and  _298
REMARK  117  A    between atoms: _298  and  _299
REMARK  118  A    between atoms: _298  and  _301
REMARK  119  A    between atoms: _301  and  _302
REMARK  120  A    between atoms: _305  and  _307
REMARK  121  A    between atoms: _307  and  _308
REMARK  122  A    between atoms: _307  and  _310
REMARK  123  A    between atoms: _310  and  _311
REMARK  124  A    between atoms: _314  and  _316
REMARK  125  A    between atoms: _316  and  _317
REMARK  126  A    between atoms: _316  and  _319
REMARK  127  A    between atoms: _322  and  _324
REMARK  128  A    between atoms: _324  and  _325
REMARK  129  A    between atoms: _324  and  _327
REMARK  130  A    between atoms: _327  and  _328
REMARK  131  A    between atoms: _331  and  _333
REMARK  132  A    between atoms: _333  and  _334
REMARK  133  A    between atoms: _333  and  _336
REMARK  134  A    between atoms: _336  and  _337
REMARK  135  A    between atoms: _342  and  _344
REMARK  136  A    between atoms: _344  and  _345
REMARK  137  A    between atoms: _344  and  _347
REMARK  138  A    between atoms: _347  and  _348
REMARK  139  A    between atoms: _351  and  _353
REMARK  140  A    between atoms: _353  and  _354
REMARK  141  A    between atoms: _357  and  _359
REMARK  142  A    between atoms: _359  and  _360
REMARK  143  A    between atoms: _363  and  _365
REMARK  144  A    between atoms: _365  and  _366
REMARK  145  A    between atoms: _365  and  _368
REMARK  146  A    between atoms: _368  and  _369
REMARK  147  A    between atoms: _372  and  _374
REMARK  148  A    between atoms: _374  and  _375
REMARK  149  A    between atoms: _374  and  _377
REMARK  150  A    between atoms: _377  and  _378
REMARK  151  A    between atoms: _380  and  _382
REMARK  152  A    between atoms: _382  and  _383
REMARK  153  A    between atoms: _382  and  _385
REMARK  154  A    between atoms: _385  and  _386
REMARK  155  A    between atoms: _391  and  _393
REMARK  156  A    between atoms: _393  and  _394
REMARK  157  A    between atoms: _397  and  _399
REMARK  158  A    between atoms: _399  and  _400
REMARK  159  A    between atoms: _399  and  _402
REMARK  160  A    between atoms: _402  and  _403
REMARK  161  A    between atoms: _403  and  _404
REMARK  162  A    between atoms: _407  and  _409
REMARK  163  A    between atoms: _409  and  _410
REMARK  164  A    between atoms: _409  and  _412
REMARK  165  A    between atoms: _415  and  _417
REMARK  166  A    between atoms: _417  and  _418
REMARK  167  A    between atoms: _417  and  _420
REMARK  168  A    between atoms: _420  and  _421
REMARK  169  A    between atoms: _424  and  _426
REMARK  170  A    between atoms: _426  and  _427
REMARK  171  A    between atoms: _429  and  _431
REMARK  172  A    between atoms: _431  and  _432
REMARK  173  A    between atoms: _431  and  _434
REMARK  174  A    between atoms: _434  and  _435
REMARK  175  A    between atoms: _435  and  _436
REMARK  176  A    between atoms: _439  and  _441
REMARK  177  A    between atoms: _441  and  _442
REMARK  178  A    between atoms: _441  and  _444
REMARK  179  A    between atoms: _444  and  _445
REMARK  180  A    between atoms: _451  and  _453
REMARK  181  A    between atoms: _453  and  _454
REMARK  182  A    between atoms: _453  and  _456
REMARK                            x       y       z     vdW  Elec       q    Type
REMARK                         _______ _______ _______ _____ _____    ______ ____
ROOT
ATOM      1  CA  ALA A   4      54.806   6.641  44.137  0.00  0.00    +0.149 C 
ATOM      2  CB  ALA A   4      53.875   5.487  44.524  0.00  0.00    +0.031 C 
ENDROOT
BRANCH   1   4
ATOM      3  C   HIS A   3      54.702   9.030  43.797  0.00  0.00    +0.241 C 
ATOM      4  N   ALA A   4      54.070   7.898  44.088  0.00  0.00    -0.297 N 
ATOM      5  H   ALA A   4      53.048   7.909  44.281  0.00  0.00    +0.150 HD
ATOM      6  O   HIS A   3      55.906   9.068  43.578  0.00  0.00    -0.273 OA
BRANCH   3   7
ATOM      7  CA  HIS A   3      53.871  10.308  43.746  0.00  0.00    +0.155 C 
BRANCH   7   9
ATOM      8  C   SER A   2      52.427   9.605  41.925  0.00  0.00    +0.243 C 
ATOM      9  N   HIS A   3      52.555  10.057  43.170  0.00  0.00    -0.297 N 
ATOM     10  H   HIS A   3      51.704  10.234  43.741  0.00  0.00    +0.150 HD
ATOM     11  O   SER A   2      53.390   9.370  41.199  0.00  0.00    -0.273 OA
BRANCH   8  12
ATOM     12  CA  SER A   2      51.007   9.377  41.419  0.00  0.00    +0.178 C 
BRANCH  12  15
ATOM     13  C   LEU A   1      49.705  10.501  39.681  0.00  0.00    +0.238 C 
ATOM     14  O   LEU A   1      48.678  10.506  40.362  0.00  0.00    -0.274 OA
ATOM     15  N   SER A   2      50.856   9.990  40.105  0.00  0.00    -0.295 N 
ATOM     16  H   SER A   2      51.682  10.029  39.474  0.00  0.00    +0.150 HD
BRANCH  13  17
ATOM     17  CA  LEU A   1      49.717  11.091  38.275  0.00  0.00    +0.145 C 
BRANCH  17  18
ATOM     18  N   LEU A   1      48.398  10.951  37.682  0.00  0.00    -0.238 NA
ATOM     19  H   LEU A   1      47.707  11.722  37.786  0.00  0.00    +0.142 HD
ENDBRANCH  17  18
BRANCH  17  20
ATOM     20  CB  LEU A   1      50.118  12.571  38.322  0.00  0.00    +0.026 C 
BRANCH  20  21
ATOM     21  CG  LEU A   1      50.082  13.310  36.982  0.00  0.00    +0.002 C 
ATOM     22  CD2 LEU A   1      50.604  14.728  37.167  0.00  0.00    +0.000 C 
ATOM     23  CD1 LEU A   1      50.913  12.571  35.960  0.00  0.00    +0.000 C 
ENDBRANCH  20  21
ENDBRANCH  17  20
ENDBRANCH  13  17
ENDBRANCH  12  15
BRANCH  12  24
ATOM     24  CB  SER A   2      50.728   7.873  41.319  0.00  0.00    +0.166 C 
BRANCH  24  25
ATOM     25  OG  SER A   2      51.385   7.156  42.345  0.00  0.00    -0.380 OA
ATOM     26  H   SER A   2      51.185   6.191  42.252  0.00  0.00    +0.211 HD
ENDBRANCH  24  25
ENDBRANCH  12  24
ENDBRANCH   8  12
ENDBRANCH   7   9
BRANCH   7  27
ATOM     27  CB  HIS A   3      53.745  10.893  45.157  0.00  0.00    +0.076 C 
BRANCH  27  28
ATOM     28  CG  HIS A   3      55.060  11.256  45.779  0.00  0.00    +0.082 A 
ATOM     29  CD2 HIS A   3      55.697  10.768  46.870  0.00  0.00    +0.115 A 
ATOM     30  NE2 HIS A   3      56.876  11.462  46.997  0.00  0.00    -0.221 NA
ATOM     31  CE1 HIS A   3      56.963  12.344  46.017  0.00  0.00    +0.199 A 
ATOM     32  ND1 HIS A   3      55.880  12.240  45.268  0.00  0.00    -0.227 NA
ENDBRANCH  27  28
ENDBRANCH   7  27
ENDBRANCH   3   7
ENDBRANCH   1   4
BRANCH   1  33
ATOM     33  C   ALA A   4      55.434   6.379  42.770  0.00  0.00    +0.241 C 
ATOM     34  O   ALA A   4      56.573   5.916  42.679  0.00  0.00    -0.273 OA
ATOM     35  N   GLU A   5      54.693   6.680  41.710  0.00  0.00    -0.297 N 
ATOM     36  H   GLU A   5      53.736   7.065  41.845  0.00  0.00    +0.150 HD
BRANCH  35  37
ATOM     37  CA  GLU A   5      55.204   6.478  40.360  0.00  0.00    +0.149 C 
BRANCH  37  38
ATOM     38  C   GLU A   5      56.299   7.492  40.058  0.00  0.00    +0.241 C 
ATOM     39  N   VAL A   6      56.198   8.667  40.670  0.00  0.00    -0.297 N 
ATOM     40  H   VAL A   6      55.380   8.858  41.283  0.00  0.00    +0.150 HD
ATOM     41  O   GLU A   5      57.224   7.216  39.290  0.00  0.00    -0.273 OA
BRANCH  39  42
ATOM     42  CA  VAL A   6      57.218   9.689  40.492  0.00  0.00    +0.149 C 
BRANCH  42  43
ATOM     43  C   VAL A   6      58.524   9.146  41.081  0.00  0.00    +0.241 C 
ATOM     44  N   LEU A   7      58.439   8.549  42.266  0.00  0.00    -0.298 N 
ATOM     45  H   LEU A   7      57.517   8.482  42.742  0.00  0.00    +0.150 HD
ATOM     46  O   VAL A   6      59.585   9.256  40.470  0.00  0.00    -0.273 OA
BRANCH  44  47
ATOM     47  CA  LEU A   7      59.622   7.987  42.907  0.00  0.00    +0.137 C 
BRANCH  47  48
ATOM     48  C   LEU A   7      60.180   6.817  42.093  0.00  0.00    +0.227 C 
ATOM     49  O   LEU A   7      61.395   6.662  41.970  0.00  0.00    -0.286 OA
ENDBRANCH  47  48
BRANCH  47  50
ATOM     50  CB  LEU A   7      59.292   7.530  44.331  0.00  0.00    +0.028 C 
BRANCH  50  51
ATOM     51  CG  LEU A   7      58.811   8.635  45.276  0.00  0.00    +0.002 C 
ATOM     52  CD2 LEU A   7      58.546   8.047  46.647  0.00  0.00    +0.000 C 
ATOM     53  CD1 LEU A   7      59.860   9.747  45.354  0.00  0.00    +0.000 C 
ENDBRANCH  50  51
ENDBRANCH  47  50
ENDBRANCH  44  47
ENDBRANCH  42  43
BRANCH  42  54
ATOM     54  CB  VAL A   6      56.823  10.999  41.214  0.00  0.00    +0.027 C 
ATOM     55  CG2 VAL A   6      58.040  11.919  41.356  0.00  0.00    +0.002 C 
ATOM     56  CG1 VAL A   6      55.718  11.697  40.432  0.00  0.00    +0.002 C 
ENDBRANCH  42  54
ENDBRANCH  39  42
ENDBRANCH  37  38
BRANCH  37  57
ATOM     57  CB  GLU A   5      54.063   6.568  39.343  0.00  0.00    +0.041 C 
BRANCH  57  58
ATOM     58  CG  GLU A   5      53.101   5.392  39.466  0.00  0.00    +0.116 C 
BRANCH  58  59
ATOM     59  CD  GLU A   5      52.022   5.372  38.407  0.00  0.00    +0.365 C 
ATOM     60  OE2 GLU A   5      51.344   4.328  38.285  0.00  0.00    -0.246 OA
ATOM     61  OE1 GLU A   5      51.841   6.388  37.706  0.00  0.00    -0.246 OA
ENDBRANCH  58  59
ENDBRANCH  57  58
ENDBRANCH  37  57
ENDBRANCH  35  37
ENDBRANCH   1  33
TORSDOF 26
REMARK  Name = ../refined-set-2016/1g2o/1g2o_pocket.pdb
REMARK  182 active torsions:
REMARK  status: ('A' for Active; 'I' for Inactive)
REMARK    1  A    between atoms: _1  and  _3
REMARK    2  A    between atoms: _3  and  _4
REMARK    3  A    between atoms: _6  and  _8
REMARK    4  A    between atoms: _8  and  _9
REMARK    5  A    between atoms: _8  and  _11
REMARK    6  A    between atoms: _11  and  _12
REMARK    7  A    between atoms: _14  and  _16
REMARK    8  A    between atoms: _16  and  _17
REMARK    9  A    between atoms: _19  and  _21
REMARK   10  A    between atoms: _21  and  _22
REMARK   11  A    between atoms: _25  and  _27
REMARK   12  A    between atoms: _27  and  _28
REMARK   13  A    between atoms: _31  and  _33
REMARK   14  A    between atoms: _33  and  _34
REMARK   15  A    between atoms: _33  and  _36
REMARK   16  A    between atoms: _36  and  _37
REMARK   17  A    between atoms: _42  and  _44
REMARK   18  A    between atoms: _44  and  _45
REMARK   19  A    between atoms: _44  and  _47
REMARK   20  A    between atoms: _47  and  _48
REMARK   21  A    between atoms: _48  and  _49
REMARK   22  A    between atoms: _49  and  _50
REMARK   23  A    between atoms: _59  and  _61
REMARK   24  A    between atoms: _61  and  _62
REMARK   25  A    between atoms: _61  and  _64
REMARK   26  A    between atoms: _64  and  _65
REMARK   27  A    between atoms: _68  and  _70
REMARK   28  A    between atoms: _70  and  _71
REMARK   29  A    between atoms: _70  and  _73
REMARK   30  A    between atoms: _73  and  _74
REMARK   31  A    between atoms: _79  and  _81
REMARK   32  A    between atoms: _81  and  _82
REMARK   33  A    between atoms: _85  and  _87
REMARK   34  A    between atoms: _87  and  _88
REMARK   35  A    between atoms: _87  and  _90
REMARK   36  A    between atoms: _90  and  _91
REMARK   37  A    between atoms: _96  and  _97
REMARK   38  A    between atoms: _99  and  _101
REMARK   39  A    between atoms: _101  and  _102
REMARK   40  A    between atoms: _101  and  _104
REMARK   41  A    between atoms: _104  and  _105
REMARK   42  A    between atoms: _105  and  _106
REMARK   43  A    between atoms: _109  and  _111
REMARK   44  A    between atoms: _111  and  _112
REMARK   45  A    between atoms: _111  and  _114
REMARK   46  A    between atoms: _114  and  _115
REMARK   47  A    between atoms: _120  and  _122
REMARK   48  A    between atoms: _122  and  _123
REMARK   49  A    between atoms: _126  and  _128
REMARK   50  A    between atoms: _128  and  _129
REMARK   51  A    between atoms: _132  and  _134
REMARK   52  A    between atoms: _134  and  _135
REMARK   53  A    between atoms: _137  and  _139
REMARK   54  A    between atoms: _139  and  _140
REMARK   55  A    between atoms: _142  and  _144
REMARK   56  A    between atoms: _144  and  _145
REMARK   57  A    between atoms: _144  and  _147
REMARK   58  A    between atoms: _147  and  _148
REMARK   59  A    between atoms: _151  and  _153
REMARK   60  A    between atoms: _153  and  _154
REMARK   61  A    between atoms: _153  and  _156
REMARK   62  A    between atoms: _156  and  _157
REMARK   63  A    between atoms: _162  and  _163
REMARK   64  A    between atoms: _165  and  _167
REMARK   65  A    between atoms: _167  and  _168
REMARK   66  A    between atoms: _171  and  _173
REMARK   67  A    between atoms: _173  and  _174
REMARK   68  A    between atoms: _176  and  _178
REMARK   69  A    between atoms: _178  and  _179
REMARK   70  A    between atoms: _178  and  _181
REMARK   71  A    between atoms: _181  and  _182
REMARK   72  A    between atoms: _186  and  _187
REMARK   73  A    between atoms: _192  and  _194
REMARK   74  A    between atoms: _194  and  _195
REMARK   75  A    between atoms: _198  and  _199
REMARK   76  A    between atoms: _204  and  _206
REMARK   77  A    between atoms: _206  and  _207
REMARK   78  A    between atoms: _206  and  _209
REMARK   79  A    between atoms: _209  and  _210
REMARK   80  A    between atoms: _215  and  _217
REMARK   81  A    between atoms: _217  and  _218
REMARK   82  A    between atoms: _217  and  _220
REMARK   83  A    between atoms: _220  and  _221
REMARK   84  A    between atoms: _226  and  _227
REMARK   85  A    between atoms: _229  and  _231
REMARK   86  A    between atoms: _231  and  _232
REMARK   87  A    between atoms: _231  and  _234
REMARK   88  A    between atoms: _234  and  _235
REMARK   89  A    between atoms: _235  and  _236
REMARK   90  A    between atoms: _239  and  _241
REMARK   91  A    between atoms: _241  and  _242
REMARK   92  A    between atoms: _241  and  _244
REMARK   93  A    between atoms: _244  and  _245
REMARK   94  A    between atoms: _248  and  _250
REMARK   95  A    between atoms: _250  and  _251
REMARK   96  A    between atoms: _250  and  _253
REMARK   97  A    between atoms: _253  and  _254
REMARK   98  A    between atoms: _257  and  _259
REMARK   99  A    between atoms: _259  and  _260
REMARK  100  A    between atoms: _259  and  _262
REMARK  101  A    between atoms: _262  and  _263
REMARK  102  A    between atoms: _266  and  _268
REMARK  103  A    between atoms: _268  and  _269
REMARK  104  A    between atoms: _268  and  _271
REMARK  105  A    between atoms: _274  and  _276
REMARK  106  A    between atoms: _276  and  _277
REMARK  107  A    between atoms: _279  and  _281
REMARK  108  A    between atoms: _281  and  _282
REMARK  109  A    between atoms: _281  and  _284
REMARK  110  A    between atoms: _284  and  _285
REMARK  111  A    between atoms: _285  and  _286
REMARK  112  A    between atoms: _288  and  _290
REMARK  113  A    between atoms: _290  and  _291
REMARK  114  A    between atoms: _290  and  _293
REMARK  115  A    between atoms: _293  and  _294
REMARK  116  A    between atoms: _296  and  _298
REMARK  117  A    between atoms: _298  and  _299
REMARK  118  A    between atoms: _298  and  _301
REMARK  119  A    between atoms: _301  and  _302
REMARK  120  A    between atoms: _305  and  _307
REMARK  121  A    between atoms: _307  and  _308
REMARK  122  A    between atoms: _307  and  _310
REMARK  123  A    between atoms: _310  and  _311
REMARK  124  A    between atoms: _314  and  _316
REMARK  125  A    between atoms: _316  and  _317
REMARK  126  A    between atoms: _316  and  _319
REMARK  127  A    between atoms: _322  and  _324
REMARK  128  A    between atoms: _324  and  _325
REMARK  129  A    between atoms: _324  and  _327
REMARK  130  A    between atoms: _327  and  _328
REMARK  131  A    between atoms: _331  and  _333
REMARK  132  A    between atoms: _333  and  _334
REMARK  133  A    between atoms: _333  and  _336
REMARK  134  A    between atoms: _336  and  _337
REMARK  135  A    between atoms: _342  and  _344
REMARK  136  A    between atoms: _344  and  _345
REMARK  137  A    between atoms: _344  and  _347
REMARK  138  A    between atoms: _347  and  _348
REMARK  139  A    between atoms: _351  and  _353
REMARK  140  A    between atoms: _353  and  _354
REMARK  141  A    between atoms: _357  and  _359
REMARK  142  A    between atoms: _359  and  _360
REMARK  143  A    between atoms: _363  and  _365
REMARK  144  A    between atoms: _365  and  _366
REMARK  145  A    between atoms: _365  and  _368
REMARK  146  A    between atoms: _368  and  _369
REMARK  147  A    between atoms: _372  and  _374
REMARK  148  A    between atoms: _374  and  _375
REMARK  149  A    between atoms: _374  and  _377
REMARK  150  A    between atoms: _377  and  _378
REMARK  151  A    between atoms: _380  and  _382
REMARK  152  A    between atoms: _382  and  _383
REMARK  153  A    between atoms: _382  and  _385
REMARK  154  A    between atoms: _385  and  _386
REMARK  155  A    between atoms: _391  and  _393
REMARK  156  A    between atoms: _393  and  _394
REMARK  157  A    between atoms: _397  and  _399
REMARK  158  A    between atoms: _399  and  _400
REMARK  159  A    between atoms: _399  and  _402
REMARK  160  A    between atoms: _402  and  _403
REMARK  161  A    between atoms: _403  and  _404
REMARK  162  A    between atoms: _407  and  _409
REMARK  163  A    between atoms: _409  and  _410
REMARK  164  A    between atoms: _409  and  _412
REMARK  165  A    between atoms: _415  and  _417
REMARK  166  A    between atoms: _417  and  _418
REMARK  167  A    between atoms: _417  and  _420
REMARK  168  A    between atoms: _420  and  _421
REMARK  169  A    between atoms: _424  and  _426
REMARK  170  A    between atoms: _426  and  _427
REMARK  171  A    between atoms: _429  and  _431
REMARK  172  A    between atoms: _431  and  _432
REMARK  173  A    between atoms: _431  and  _434
REMARK  174  A    between atoms: _434  and  _435
REMARK  175  A    between atoms: _435  and  _436
REMARK  176  A    between atoms: _439  and  _441
REMARK  177  A    between atoms: _441  and  _442
REMARK  178  A    between atoms: _441  and  _444
REMARK  179  A    between atoms: _444  and  _445
REMARK  180  A    between atoms: _451  and  _453
REMARK  181  A    between atoms: _453  and  _454
REMARK  182  A    between atoms: _453  and  _456
REMARK                            x       y       z     vdW  Elec       q    Type
REMARK                         _______ _______ _______ _____ _____    ______ ____
ROOT
ATOM      1  CA  PHE A   3      49.532  14.540  45.930  0.00  0.00    +0.153 C 
ENDROOT
BRANCH   1   4
ATOM      2  C   GLU A   2      48.542  15.151  48.079  0.00  0.00    +0.241 C 
ATOM      3  O   GLU A   2      47.889  16.072  47.589  0.00  0.00    -0.273 OA
ATOM      4  N   PHE A   3      49.336  14.359  47.364  0.00  0.00    -0.297 N 
ATOM      5  H   PHE A   3      49.835  13.583  47.844  0.00  0.00    +0.150 HD
BRANCH   2   6
ATOM      6  CA  GLU A   2      48.481  14.849  49.573  0.00  0.00    +0.149 C 
BRANCH   6   8
ATOM      7  C   GLY A   1      50.772  14.487  50.297  0.00  0.00    +0.240 C 
ATOM      8  N   GLU A   2      49.737  15.308  50.160  0.00  0.00    -0.297 N 
ATOM      9  H   GLU A   2      49.822  16.295  50.476  0.00  0.00    +0.150 HD
ATOM     10  O   GLY A   1      50.722  13.299  49.972  0.00  0.00    -0.274 OA
BRANCH   7  11
ATOM     11  CA  GLY A   1      52.046  15.069  50.885  0.00  0.00    +0.169 C 
BRANCH  11  12
ATOM     12  N   GLY A   1      51.924  15.858  52.099  0.00  0.00    -0.236 NA
ATOM     13  H   GLY A   1      52.188  15.434  53.011  0.00  0.00    +0.142 HD
ENDBRANCH  11  12
ENDBRANCH   7  11
ENDBRANCH   6   8
BRANCH   6  14
ATOM     14  CB  GLU A   2      47.289  15.572  50.208  0.00  0.00    +0.041 C 
BRANCH  14  15
ATOM     15  CG  GLU A   2      46.970  15.121  51.623  0.00  0.00    +0.116 C 
BRANCH  15  16
ATOM     16  CD  GLU A   2      45.758  15.827  52.207  0.00  0.00    +0.365 C 
ATOM     17  OE2 GLU A   2      45.828  17.054  52.436  0.00  0.00    -0.246 OA
ATOM     18  OE1 GLU A   2      44.731  15.154  52.435  0.00  0.00    -0.246 OA
ENDBRANCH  15  16
ENDBRANCH  14  15
ENDBRANCH   6  14
ENDBRANCH   2   6
ENDBRANCH   1   4
BRANCH   1  19
ATOM     19  C   PHE A   3      48.378  13.946  45.131  0.00  0.00    +0.241 C 
ATOM     20  N   VAL A   4      47.251  14.646  45.151  0.00  0.00    -0.298 N 
ATOM     21  H   VAL A   4      47.229  15.546  45.671  0.00  0.00    +0.150 HD
ATOM     22  O   PHE A   3      48.509  12.894  44.504  0.00  0.00    -0.273 OA
BRANCH  20  23
ATOM     23  CA  VAL A   4      46.043  14.199  44.470  0.00  0.00    +0.137 C 
BRANCH  23  24
ATOM     24  CB  VAL A   4      44.801  14.798  45.156  0.00  0.00    +0.026 C 
ATOM     25  CG2 VAL A   4      44.810  14.428  46.636  0.00  0.00    +0.002 C 
ATOM     26  CG1 VAL A   4      43.533  14.298  44.481  0.00  0.00    +0.002 C 
ENDBRANCH  23  24
BRANCH  23  27
ATOM     27  C   VAL A   4      46.003  14.540  42.983  0.00  0.00    +0.227 C 
ATOM     28  O   VAL A   4      46.251  15.678  42.585  0.00  0.00    -0.286 OA
ENDBRANCH  23  27
ENDBRANCH  20  23
ENDBRANCH   1  19
BRANCH   1  29
ATOM     29  CB  PHE A   3      50.861  13.898  45.528  0.00  0.00    +0.055 C 
BRANCH  29  30
ATOM     30  CG  PHE A   3      52.030  14.385  46.341  0.00  0.00    -0.020 A 
ATOM     31  CD2 PHE A   3      52.798  13.496  47.084  0.00  0.00    -0.004 A 
ATOM     32  CE2 PHE A   3      53.877  13.947  47.843  0.00  0.00    -0.000 A 
ATOM     33  CZ  PHE A   3      54.194  15.301  47.862  0.00  0.00    -0.000 A 
ATOM     34  CE1 PHE A   3      53.432  16.199  47.123  0.00  0.00    -0.000 A 
ATOM     35  CD1 PHE A   3      52.357  15.738  46.368  0.00  0.00    -0.004 A 
ENDBRANCH  29  30
ENDBRANCH   1  29
TORSDOF 14
REMARK  Name = ../refined-set-2016/1g2o/1g2o_pocket.pdb
REMARK  182 active torsions:
REMARK  status: ('A' for Active; 'I' for Inactive)
REMARK    1  A    between atoms: _1  and  _3
REMARK    2  A    between atoms: _3  and  _4
REMARK    3  A    between atoms: _6  and  _8
REMARK    4  A    between atoms: _8  and  _9
REMARK    5  A    between atoms: _8  and  _11
REMARK    6  A    between atoms: _11  and  _12
REMARK    7  A    between atoms: _14  and  _16
REMARK    8  A    between atoms: _16  and  _17
REMARK    9  A    between atoms: _19  and  _21
REMARK   10  A    between atoms: _21  and  _22
REMARK   11  A    between atoms: _25  and  _27
REMARK   12  A    between atoms: _27  and  _28
REMARK   13  A    between atoms: _31  and  _33
REMARK   14  A    between atoms: _33  and  _34
REMARK   15  A    between atoms: _33  and  _36
REMARK   16  A    between atoms: _36  and  _37
REMARK   17  A    between atoms: _42  and  _44
REMARK   18  A    between atoms: _44  and  _45
REMARK   19  A    between atoms: _44  and  _47
REMARK   20  A    between atoms: _47  and  _48
REMARK   21  A    between atoms: _48  and  _49
REMARK   22  A    between atoms: _49  and  _50
REMARK   23  A    between atoms: _59  and  _61
REMARK   24  A    between atoms: _61  and  _62
REMARK   25  A    between atoms: _61  and  _64
REMARK   26  A    between atoms: _64  and  _65
REMARK   27  A    between atoms: _68  and  _70
REMARK   28  A    between atoms: _70  and  _71
REMARK   29  A    between atoms: _70  and  _73
REMARK   30  A    between atoms: _73  and  _74
REMARK   31  A    between atoms: _79  and  _81
REMARK   32  A    between atoms: _81  and  _82
REMARK   33  A    between atoms: _85  and  _87
REMARK   34  A    between atoms: _87  and  _88
REMARK   35  A    between atoms: _87  and  _90
REMARK   36  A    between atoms: _90  and  _91
REMARK   37  A    between atoms: _96  and  _97
REMARK   38  A    between atoms: _99  and  _101
REMARK   39  A    between atoms: _101  and  _102
REMARK   40  A    between atoms: _101  and  _104
REMARK   41  A    between atoms: _104  and  _105
REMARK   42  A    between atoms: _105  and  _106
REMARK   43  A    between atoms: _109  and  _111
REMARK   44  A    between atoms: _111  and  _112
REMARK   45  A    between atoms: _111  and  _114
REMARK   46  A    between atoms: _114  and  _115
REMARK   47  A    between atoms: _120  and  _122
REMARK   48  A    between atoms: _122  and  _123
REMARK   49  A    between atoms: _126  and  _128
REMARK   50  A    between atoms: _128  and  _129
REMARK   51  A    between atoms: _132  and  _134
REMARK   52  A    between atoms: _134  and  _135
REMARK   53  A    between atoms: _137  and  _139
REMARK   54  A    between atoms: _139  and  _140
REMARK   55  A    between atoms: _142  and  _144
REMARK   56  A    between atoms: _144  and  _145
REMARK   57  A    between atoms: _144  and  _147
REMARK   58  A    between atoms: _147  and  _148
REMARK   59  A    between atoms: _151  and  _153
REMARK   60  A    between atoms: _153  and  _154
REMARK   61  A    between atoms: _153  and  _156
REMARK   62  A    between atoms: _156  and  _157
REMARK   63  A    between atoms: _162  and  _163
REMARK   64  A    between atoms: _165  and  _167
REMARK   65  A    between atoms: _167  and  _168
REMARK   66  A    between atoms: _171  and  _173
REMARK   67  A    between atoms: _173  and  _174
REMARK   68  A    between atoms: _176  and  _178
REMARK   69  A    between atoms: _178  and  _179
REMARK   70  A    between atoms: _178  and  _181
REMARK   71  A    between atoms: _181  and  _182
REMARK   72  A    between atoms: _186  and  _187
REMARK   73  A    between atoms: _192  and  _194
REMARK   74  A    between atoms: _194  and  _195
REMARK   75  A    between atoms: _198  and  _199
REMARK   76  A    between atoms: _204  and  _206
REMARK   77  A    between atoms: _206  and  _207
REMARK   78  A    between atoms: _206  and  _209
REMARK   79  A    between atoms: _209  and  _210
REMARK   80  A    between atoms: _215  and  _217
REMARK   81  A    between atoms: _217  and  _218
REMARK   82  A    between atoms: _217  and  _220
REMARK   83  A    between atoms: _220  and  _221
REMARK   84  A    between atoms: _226  and  _227
REMARK   85  A    between atoms: _229  and  _231
REMARK   86  A    between atoms: _231  and  _232
REMARK   87  A    between atoms: _231  and  _234
REMARK   88  A    between atoms: _234  and  _235
REMARK   89  A    between atoms: _235  and  _236
REMARK   90  A    between atoms: _239  and  _241
REMARK   91  A    between atoms: _241  and  _242
REMARK   92  A    between atoms: _241  and  _244
REMARK   93  A    between atoms: _244  and  _245
REMARK   94  A    between atoms: _248  and  _250
REMARK   95  A    between atoms: _250  and  _251
REMARK   96  A    between atoms: _250  and  _253
REMARK   97  A    between atoms: _253  and  _254
REMARK   98  A    between atoms: _257  and  _259
REMARK   99  A    between atoms: _259  and  _260
REMARK  100  A    between atoms: _259  and  _262
REMARK  101  A    between atoms: _262  and  _263
REMARK  102  A    between atoms: _266  and  _268
REMARK  103  A    between atoms: _268  and  _269
REMARK  104  A    between atoms: _268  and  _271
REMARK  105  A    between atoms: _274  and  _276
REMARK  106  A    between atoms: _276  and  _277
REMARK  107  A    between atoms: _279  and  _281
REMARK  108  A    between atoms: _281  and  _282
REMARK  109  A    between atoms: _281  and  _284
REMARK  110  A    between atoms: _284  and  _285
REMARK  111  A    between atoms: _285  and  _286
REMARK  112  A    between atoms: _288  and  _290
REMARK  113  A    between atoms: _290  and  _291
REMARK  114  A    between atoms: _290  and  _293
REMARK  115  A    between atoms: _293  and  _294
REMARK  116  A    between atoms: _296  and  _298
REMARK  117  A    between atoms: _298  and  _299
REMARK  118  A    between atoms: _298  and  _301
REMARK  119  A    between atoms: _301  and  _302
REMARK  120  A    between atoms: _305  and  _307
REMARK  121  A    between atoms: _307  and  _308
REMARK  122  A    between atoms: _307  and  _310
REMARK  123  A    between atoms: _310  and  _311
REMARK  124  A    between atoms: _314  and  _316
REMARK  125  A    between atoms: _316  and  _317
REMARK  126  A    between atoms: _316  and  _319
REMARK  127  A    between atoms: _322  and  _324
REMARK  128  A    between atoms: _324  and  _325
REMARK  129  A    between atoms: _324  and  _327
REMARK  130  A    between atoms: _327  and  _328
REMARK  131  A    between atoms: _331  and  _333
REMARK  132  A    between atoms: _333  and  _334
REMARK  133  A    between atoms: _333  and  _336
REMARK  134  A    between atoms: _336  and  _337
REMARK  135  A    between atoms: _342  and  _344
REMARK  136  A    between atoms: _344  and  _345
REMARK  137  A    between atoms: _344  and  _347
REMARK  138  A    between atoms: _347  and  _348
REMARK  139  A    between atoms: _351  and  _353
REMARK  140  A    between atoms: _353  and  _354
REMARK  141  A    between atoms: _357  and  _359
REMARK  142  A    between atoms: _359  and  _360
REMARK  143  A    between atoms: _363  and  _365
REMARK  144  A    between atoms: _365  and  _366
REMARK  145  A    between atoms: _365  and  _368
REMARK  146  A    between atoms: _368  and  _369
REMARK  147  A    between atoms: _372  and  _374
REMARK  148  A    between atoms: _374  and  _375
REMARK  149  A    between atoms: _374  and  _377
REMARK  150  A    between atoms: _377  and  _378
REMARK  151  A    between atoms: _380  and  _382
REMARK  152  A    between atoms: _382  and  _383
REMARK  153  A    between atoms: _382  and  _385
REMARK  154  A    between atoms: _385  and  _386
REMARK  155  A    between atoms: _391  and  _393
REMARK  156  A    between atoms: _393  and  _394
REMARK  157  A    between atoms: _397  and  _399
REMARK  158  A    between atoms: _399  and  _400
REMARK  159  A    between atoms: _399  and  _402
REMARK  160  A    between atoms: _402  and  _403
REMARK  161  A    between atoms: _403  and  _404
REMARK  162  A    between atoms: _407  and  _409
REMARK  163  A    between atoms: _409  and  _410
REMARK  164  A    between atoms: _409  and  _412
REMARK  165  A    between atoms: _415  and  _417
REMARK  166  A    between atoms: _417  and  _418
REMARK  167  A    between atoms: _417  and  _420
REMARK  168  A    between atoms: _420  and  _421
REMARK  169  A    between atoms: _424  and  _426
REMARK  170  A    between atoms: _426  and  _427
REMARK  171  A    between atoms: _429  and  _431
REMARK  172  A    between atoms: _431  and  _432
REMARK  173  A    between atoms: _431  and  _434
REMARK  174  A    between atoms: _434  and  _435
REMARK  175  A    between atoms: _435  and  _436
REMARK  176  A    between atoms: _439  and  _441
REMARK  177  A    between atoms: _441  and  _442
REMARK  178  A    between atoms: _441  and  _444
REMARK  179  A    between atoms: _444  and  _445
REMARK  180  A    between atoms: _451  and  _453
REMARK  181  A    between atoms: _453  and  _454
REMARK  182  A    between atoms: _453  and  _456
REMARK                            x       y       z     vdW  Elec       q    Type
REMARK                         _______ _______ _______ _____ _____    ______ ____
ROOT
ATOM      1  O   HOH     1      49.465  22.239  41.191  0.00  0.00    +0.000 OA
ENDROOT
TORSDOF 0
REMARK  Name = ../refined-set-2016/1g2o/1g2o_pocket.pdb
REMARK  182 active torsions:
REMARK  status: ('A' for Active; 'I' for Inactive)
REMARK    1  A    between atoms: _1  and  _3
REMARK    2  A    between atoms: _3  and  _4
REMARK    3  A    between atoms: _6  and  _8
REMARK    4  A    between atoms: _8  and  _9
REMARK    5  A    between atoms: _8  and  _11
REMARK    6  A    between atoms: _11  and  _12
REMARK    7  A    between atoms: _14  and  _16
REMARK    8  A    between atoms: _16  and  _17
REMARK    9  A    between atoms: _19  and  _21
REMARK   10  A    between atoms: _21  and  _22
REMARK   11  A    between atoms: _25  and  _27
REMARK   12  A    between atoms: _27  and  _28
REMARK   13  A    between atoms: _31  and  _33
REMARK   14  A    between atoms: _33  and  _34
REMARK   15  A    between atoms: _33  and  _36
REMARK   16  A    between atoms: _36  and  _37
REMARK   17  A    between atoms: _42  and  _44
REMARK   18  A    between atoms: _44  and  _45
REMARK   19  A    between atoms: _44  and  _47
REMARK   20  A    between atoms: _47  and  _48
REMARK   21  A    between atoms: _48  and  _49
REMARK   22  A    between atoms: _49  and  _50
REMARK   23  A    between atoms: _59  and  _61
REMARK   24  A    between atoms: _61  and  _62
REMARK   25  A    between atoms: _61  and  _64
REMARK   26  A    between atoms: _64  and  _65
REMARK   27  A    between atoms: _68  and  _70
REMARK   28  A    between atoms: _70  and  _71
REMARK   29  A    between atoms: _70  and  _73
REMARK   30  A    between atoms: _73  and  _74
REMARK   31  A    between atoms: _79  and  _81
REMARK   32  A    between atoms: _81  and  _82
REMARK   33  A    between atoms: _85  and  _87
REMARK   34  A    between atoms: _87  and  _88
REMARK   35  A    between atoms: _87  and  _90
REMARK   36  A    between atoms: _90  and  _91
REMARK   37  A    between atoms: _96  and  _97
REMARK   38  A    between atoms: _99  and  _101
REMARK   39  A    between atoms: _101  and  _102
REMARK   40  A    between atoms: _101  and  _104
REMARK   41  A    between atoms: _104  and  _105
REMARK   42  A    between atoms: _105  and  _106
REMARK   43  A    between atoms: _109  and  _111
REMARK   44  A    between atoms: _111  and  _112
REMARK   45  A    between atoms: _111  and  _114
REMARK   46  A    between atoms: _114  and  _115
REMARK   47  A    between atoms: _120  and  _122
REMARK   48  A    between atoms: _122  and  _123
REMARK   49  A    between atoms: _126  and  _128
REMARK   50  A    between atoms: _128  and  _129
REMARK   51  A    between atoms: _132  and  _134
REMARK   52  A    between atoms: _134  and  _135
REMARK   53  A    between atoms: _137  and  _139
REMARK   54  A    between atoms: _139  and  _140
REMARK   55  A    between atoms: _142  and  _144
REMARK   56  A    between atoms: _144  and  _145
REMARK   57  A    between atoms: _144  and  _147
REMARK   58  A    between atoms: _147  and  _148
REMARK   59  A    between atoms: _151  and  _153
REMARK   60  A    between atoms: _153  and  _154
REMARK   61  A    between atoms: _153  and  _156
REMARK   62  A    between atoms: _156  and  _157
REMARK   63  A    between atoms: _162  and  _163
REMARK   64  A    between atoms: _165  and  _167
REMARK   65  A    between atoms: _167  and  _168
REMARK   66  A    between atoms: _171  and  _173
REMARK   67  A    between atoms: _173  and  _174
REMARK   68  A    between atoms: _176  and  _178
REMARK   69  A    between atoms: _178  and  _179
REMARK   70  A    between atoms: _178  and  _181
REMARK   71  A    between atoms: _181  and  _182
REMARK   72  A    between atoms: _186  and  _187
REMARK   73  A    between atoms: _192  and  _194
REMARK   74  A    between atoms: _194  and  _195
REMARK   75  A    between atoms: _198  and  _199
REMARK   76  A    between atoms: _204  and  _206
REMARK   77  A    between atoms: _206  and  _207
REMARK   78  A    between atoms: _206  and  _209
REMARK   79  A    between atoms: _209  and  _210
REMARK   80  A    between atoms: _215  and  _217
REMARK   81  A    between atoms: _217  and  _218
REMARK   82  A    between atoms: _217  and  _220
REMARK   83  A    between atoms: _220  and  _221
REMARK   84  A    between atoms: _226  and  _227
REMARK   85  A    between atoms: _229  and  _231
REMARK   86  A    between atoms: _231  and  _232
REMARK   87  A    between atoms: _231  and  _234
REMARK   88  A    between atoms: _234  and  _235
REMARK   89  A    between atoms: _235  and  _236
REMARK   90  A    between atoms: _239  and  _241
REMARK   91  A    between atoms: _241  and  _242
REMARK   92  A    between atoms: _241  and  _244
REMARK   93  A    between atoms: _244  and  _245
REMARK   94  A    between atoms: _248  and  _250
REMARK   95  A    between atoms: _250  and  _251
REMARK   96  A    between atoms: _250  and  _253
REMARK   97  A    between atoms: _253  and  _254
REMARK   98  A    between atoms: _257  and  _259
REMARK   99  A    between atoms: _259  and  _260
REMARK  100  A    between atoms: _259  and  _262
REMARK  101  A    between atoms: _262  and  _263
REMARK  102  A    between atoms: _266  and  _268
REMARK  103  A    between atoms: _268  and  _269
REMARK  104  A    between atoms: _268  and  _271
REMARK  105  A    between atoms: _274  and  _276
REMARK  106  A    between atoms: _276  and  _277
REMARK  107  A    between atoms: _279  and  _281
REMARK  108  A    between atoms: _281  and  _282
REMARK  109  A    between atoms: _281  and  _284
REMARK  110  A    between atoms: _284  and  _285
REMARK  111  A    between atoms: _285  and  _286
REMARK  112  A    between atoms: _288  and  _290
REMARK  113  A    between atoms: _290  and  _291
REMARK  114  A    between atoms: _290  and  _293
REMARK  115  A    between atoms: _293  and  _294
REMARK  116  A    between atoms: _296  and  _298
REMARK  117  A    between atoms: _298  and  _299
REMARK  118  A    between atoms: _298  and  _301
REMARK  119  A    between atoms: _301  and  _302
REMARK  120  A    between atoms: _305  and  _307
REMARK  121  A    between atoms: _307  and  _308
REMARK  122  A    between atoms: _307  and  _310
REMARK  123  A    between atoms: _310  and  _311
REMARK  124  A    between atoms: _314  and  _316
REMARK  125  A    between atoms: _316  and  _317
REMARK  126  A    between atoms: _316  and  _319
REMARK  127  A    between atoms: _322  and  _324
REMARK  128  A    between atoms: _324  and  _325
REMARK  129  A    between atoms: _324  and  _327
REMARK  130  A    between atoms: _327  and  _328
REMARK  131  A    between atoms: _331  and  _333
REMARK  132  A    between atoms: _333  and  _334
REMARK  133  A    between atoms: _333  and  _336
REMARK  134  A    between atoms: _336  and  _337
REMARK  135  A    between atoms: _342  and  _344
REMARK  136  A    between atoms: _344  and  _345
REMARK  137  A    between atoms: _344  and  _347
REMARK  138  A    between atoms: _347  and  _348
REMARK  139  A    between atoms: _351  and  _353
REMARK  140  A    between atoms: _353  and  _354
REMARK  141  A    between atoms: _357  and  _359
REMARK  142  A    between atoms: _359  and  _360
REMARK  143  A    between atoms: _363  and  _365
REMARK  144  A    between atoms: _365  and  _366
REMARK  145  A    between atoms: _365  and  _368
REMARK  146  A    between atoms: _368  and  _369
REMARK  147  A    between atoms: _372  and  _374
REMARK  148  A    between atoms: _374  and  _375
REMARK  149  A    between atoms: _374  and  _377
REMARK  150  A    between atoms: _377  and  _378
REMARK  151  A    between atoms: _380  and  _382
REMARK  152  A    between atoms: _382  and  _383
REMARK  153  A    between atoms: _382  and  _385
REMARK  154  A    between atoms: _385  and  _386
REMARK  155  A    between atoms: _391  and  _393
REMARK  156  A    between atoms: _393  and  _394
REMARK  157  A    between atoms: _397  and  _399
REMARK  158  A    between atoms: _399  and  _400
REMARK  159  A    between atoms: _399  and  _402
REMARK  160  A    between atoms: _402  and  _403
REMARK  161  A    between atoms: _403  and  _404
REMARK  162  A    between atoms: _407  and  _409
REMARK  163  A    between atoms: _409  and  _410
REMARK  164  A    between atoms: _409  and  _412
REMARK  165  A    between atoms: _415  and  _417
REMARK  166  A    between atoms: _417  and  _418
REMARK  167  A    between atoms: _417  and  _420
REMARK  168  A    between atoms: _420  and  _421
REMARK  169  A    between atoms: _424  and  _426
REMARK  170  A    between atoms: _426  and  _427
REMARK  171  A    between atoms: _429  and  _431
REMARK  172  A    between atoms: _431  and  _432
REMARK  173  A    between atoms: _431  and  _434
REMARK  174  A    between atoms: _434  and  _435
REMARK  175  A    between atoms: _435  and  _436
REMARK  176  A    between atoms: _439  and  _441
REMARK  177  A    between atoms: _441  and  _442
REMARK  178  A    between atoms: _441  and  _444
REMARK  179  A    between atoms: _444  and  _445
REMARK  180  A    between atoms: _451  and  _453
REMARK  181  A    between atoms: _453  and  _454
REMARK  182  A    between atoms: _453  and  _456
REMARK                            x       y       z     vdW  Elec       q    Type
REMARK                         _______ _______ _______ _____ _____    ______ ____
ROOT
ATOM      1  O   HOH     1      60.742  23.426  48.381  0.00  0.00    +0.000 OA
ENDROOT
TORSDOF 0
REMARK  Name = ../refined-set-2016/1g2o/1g2o_pocket.pdb
REMARK  182 active torsions:
REMARK  status: ('A' for Active; 'I' for Inactive)
REMARK    1  A    between atoms: _1  and  _3
REMARK    2  A    between atoms: _3  and  _4
REMARK    3  A    between atoms: _6  and  _8
REMARK    4  A    between atoms: _8  and  _9
REMARK    5  A    between atoms: _8  and  _11
REMARK    6  A    between atoms: _11  and  _12
REMARK    7  A    between atoms: _14  and  _16
REMARK    8  A    between atoms: _16  and  _17
REMARK    9  A    between atoms: _19  and  _21
REMARK   10  A    between atoms: _21  and  _22
REMARK   11  A    between atoms: _25  and  _27
REMARK   12  A    between atoms: _27  and  _28
REMARK   13  A    between atoms: _31  and  _33
REMARK   14  A    between atoms: _33  and  _34
REMARK   15  A    between atoms: _33  and  _36
REMARK   16  A    between atoms: _36  and  _37
REMARK   17  A    between atoms: _42  and  _44
REMARK   18  A    between atoms: _44  and  _45
REMARK   19  A    between atoms: _44  and  _47
REMARK   20  A    between atoms: _47  and  _48
REMARK   21  A    between atoms: _48  and  _49
REMARK   22  A    between atoms: _49  and  _50
REMARK   23  A    between atoms: _59  and  _61
REMARK   24  A    between atoms: _61  and  _62
REMARK   25  A    between atoms: _61  and  _64
REMARK   26  A    between atoms: _64  and  _65
REMARK   27  A    between atoms: _68  and  _70
REMARK   28  A    between atoms: _70  and  _71
REMARK   29  A    between atoms: _70  and  _73
REMARK   30  A    between atoms: _73  and  _74
REMARK   31  A    between atoms: _79  and  _81
REMARK   32  A    between atoms: _81  and  _82
REMARK   33  A    between atoms: _85  and  _87
REMARK   34  A    between atoms: _87  and  _88
REMARK   35  A    between atoms: _87  and  _90
REMARK   36  A    between atoms: _90  and  _91
REMARK   37  A    between atoms: _96  and  _97
REMARK   38  A    between atoms: _99  and  _101
REMARK   39  A    between atoms: _101  and  _102
REMARK   40  A    between atoms: _101  and  _104
REMARK   41  A    between atoms: _104  and  _105
REMARK   42  A    between atoms: _105  and  _106
REMARK   43  A    between atoms: _109  and  _111
REMARK   44  A    between atoms: _111  and  _112
REMARK   45  A    between atoms: _111  and  _114
REMARK   46  A    between atoms: _114  and  _115
REMARK   47  A    between atoms: _120  and  _122
REMARK   48  A    between atoms: _122  and  _123
REMARK   49  A    between atoms: _126  and  _128
REMARK   50  A    between atoms: _128  and  _129
REMARK   51  A    between atoms: _132  and  _134
REMARK   52  A    between atoms: _134  and  _135
REMARK   53  A    between atoms: _137  and  _139
REMARK   54  A    between atoms: _139  and  _140
REMARK   55  A    between atoms: _142  and  _144
REMARK   56  A    between atoms: _144  and  _145
REMARK   57  A    between atoms: _144  and  _147
REMARK   58  A    between atoms: _147  and  _148
REMARK   59  A    between atoms: _151  and  _153
REMARK   60  A    between atoms: _153  and  _154
REMARK   61  A    between atoms: _153  and  _156
REMARK   62  A    between atoms: _156  and  _157
REMARK   63  A    between atoms: _162  and  _163
REMARK   64  A    between atoms: _165  and  _167
REMARK   65  A    between atoms: _167  and  _168
REMARK   66  A    between atoms: _171  and  _173
REMARK   67  A    between atoms: _173  and  _174
REMARK   68  A    between atoms: _176  and  _178
REMARK   69  A    between atoms: _178  and  _179
REMARK   70  A    between atoms: _178  and  _181
REMARK   71  A    between atoms: _181  and  _182
REMARK   72  A    between atoms: _186  and  _187
REMARK   73  A    between atoms: _192  and  _194
REMARK   74  A    between atoms: _194  and  _195
REMARK   75  A    between atoms: _198  and  _199
REMARK   76  A    between atoms: _204  and  _206
REMARK   77  A    between atoms: _206  and  _207
REMARK   78  A    between atoms: _206  and  _209
REMARK   79  A    between atoms: _209  and  _210
REMARK   80  A    between atoms: _215  and  _217
REMARK   81  A    between atoms: _217  and  _218
REMARK   82  A    between atoms: _217  and  _220
REMARK   83  A    between atoms: _220  and  _221
REMARK   84  A    between atoms: _226  and  _227
REMARK   85  A    between atoms: _229  and  _231
REMARK   86  A    between atoms: _231  and  _232
REMARK   87  A    between atoms: _231  and  _234
REMARK   88  A    between atoms: _234  and  _235
REMARK   89  A    between atoms: _235  and  _236
REMARK   90  A    between atoms: _239  and  _241
REMARK   91  A    between atoms: _241  and  _242
REMARK   92  A    between atoms: _241  and  _244
REMARK   93  A    between atoms: _244  and  _245
REMARK   94  A    between atoms: _248  and  _250
REMARK   95  A    between atoms: _250  and  _251
REMARK   96  A    between atoms: _250  and  _253
REMARK   97  A    between atoms: _253  and  _254
REMARK   98  A    between atoms: _257  and  _259
REMARK   99  A    between atoms: _259  and  _260
REMARK  100  A    between atoms: _259  and  _262
REMARK  101  A    between atoms: _262  and  _263
REMARK  102  A    between atoms: _266  and  _268
REMARK  103  A    between atoms: _268  and  _269
REMARK  104  A    between atoms: _268  and  _271
REMARK  105  A    between atoms: _274  and  _276
REMARK  106  A    between atoms: _276  and  _277
REMARK  107  A    between atoms: _279  and  _281
REMARK  108  A    between atoms: _281  and  _282
REMARK  109  A    between atoms: _281  and  _284
REMARK  110  A    between atoms: _284  and  _285
REMARK  111  A    between atoms: _285  and  _286
REMARK  112  A    between atoms: _288  and  _290
REMARK  113  A    between atoms: _290  and  _291
REMARK  114  A    between atoms: _290  and  _293
REMARK  115  A    between atoms: _293  and  _294
REMARK  116  A    between atoms: _296  and  _298
REMARK  117  A    between atoms: _298  and  _299
REMARK  118  A    between atoms: _298  and  _301
REMARK  119  A    between atoms: _301  and  _302
REMARK  120  A    between atoms: _305  and  _307
REMARK  121  A    between atoms: _307  and  _308
REMARK  122  A    between atoms: _307  and  _310
REMARK  123  A    between atoms: _310  and  _311
REMARK  124  A    between atoms: _314  and  _316
REMARK  125  A    between atoms: _316  and  _317
REMARK  126  A    between atoms: _316  and  _319
REMARK  127  A    between atoms: _322  and  _324
REMARK  128  A    between atoms: _324  and  _325
REMARK  129  A    between atoms: _324  and  _327
REMARK  130  A    between atoms: _327  and  _328
REMARK  131  A    between atoms: _331  and  _333
REMARK  132  A    between atoms: _333  and  _334
REMARK  133  A    between atoms: _333  and  _336
REMARK  134  A    between atoms: _336  and  _337
REMARK  135  A    between atoms: _342  and  _344
REMARK  136  A    between atoms: _344  and  _345
REMARK  137  A    between atoms: _344  and  _347
REMARK  138  A    between atoms: _347  and  _348
REMARK  139  A    between atoms: _351  and  _353
REMARK  140  A    between atoms: _353  and  _354
REMARK  141  A    between atoms: _357  and  _359
REMARK  142  A    between atoms: _359  and  _360
REMARK  143  A    between atoms: _363  and  _365
REMARK  144  A    between atoms: _365  and  _366
REMARK  145  A    between atoms: _365  and  _368
REMARK  146  A    between atoms: _368  and  _369
REMARK  147  A    between atoms: _372  and  _374
REMARK  148  A    between atoms: _374  and  _375
REMARK  149  A    between atoms: _374  and  _377
REMARK  150  A    between atoms: _377  and  _378
REMARK  151  A    between atoms: _380  and  _382
REMARK  152  A    between atoms: _382  and  _383
REMARK  153  A    between atoms: _382  and  _385
REMARK  154  A    between atoms: _385  and  _386
REMARK  155  A    between atoms: _391  and  _393
REMARK  156  A    between atoms: _393  and  _394
REMARK  157  A    between atoms: _397  and  _399
REMARK  158  A    between atoms: _399  and  _400
REMARK  159  A    between atoms: _399  and  _402
REMARK  160  A    between atoms: _402  and  _403
REMARK  161  A    between atoms: _403  and  _404
REMARK  162  A    between atoms: _407  and  _409
REMARK  163  A    between atoms: _409  and  _410
REMARK  164  A    between atoms: _409  and  _412
REMARK  165  A    between atoms: _415  and  _417
REMARK  166  A    between atoms: _417  and  _418
REMARK  167  A    between atoms: _417  and  _420
REMARK  168  A    between atoms: _420  and  _421
REMARK  169  A    between atoms: _424  and  _426
REMARK  170  A    between atoms: _426  and  _427
REMARK  171  A    between atoms: _429  and  _431
REMARK  172  A    between atoms: _431  and  _432
REMARK  173  A    between atoms: _431  and  _434
REMARK  174  A    between atoms: _434  and  _435
REMARK  175  A    between atoms: _435  and  _436
REMARK  176  A    between atoms: _439  and  _441
REMARK  177  A    between atoms: _441  and  _442
REMARK  178  A    between atoms: _441  and  _444
REMARK  179  A    between atoms: _444  and  _445
REMARK  180  A    between atoms: _451  and  _453
REMARK  181  A    between atoms: _453  and  _454
REMARK  182  A    between atoms: _453  and  _456
REMARK                            x       y       z     vdW  Elec       q    Type
REMARK                         _______ _______ _______ _____ _____    ______ ____
ROOT
ATOM      1  O   HOH     1      59.411  16.913  52.995  0.00  0.00    +0.000 OA
ENDROOT
TORSDOF 0
REMARK  Name = ../refined-set-2016/1g2o/1g2o_pocket.pdb
REMARK  182 active torsions:
REMARK  status: ('A' for Active; 'I' for Inactive)
REMARK    1  A    between atoms: _1  and  _3
REMARK    2  A    between atoms: _3  and  _4
REMARK    3  A    between atoms: _6  and  _8
REMARK    4  A    between atoms: _8  and  _9
REMARK    5  A    between atoms: _8  and  _11
REMARK    6  A    between atoms: _11  and  _12
REMARK    7  A    between atoms: _14  and  _16
REMARK    8  A    between atoms: _16  and  _17
REMARK    9  A    between atoms: _19  and  _21
REMARK   10  A    between atoms: _21  and  _22
REMARK   11  A    between atoms: _25  and  _27
REMARK   12  A    between atoms: _27  and  _28
REMARK   13  A    between atoms: _31  and  _33
REMARK   14  A    between atoms: _33  and  _34
REMARK   15  A    between atoms: _33  and  _36
REMARK   16  A    between atoms: _36  and  _37
REMARK   17  A    between atoms: _42  and  _44
REMARK   18  A    between atoms: _44  and  _45
REMARK   19  A    between atoms: _44  and  _47
REMARK   20  A    between atoms: _47  and  _48
REMARK   21  A    between atoms: _48  and  _49
REMARK   22  A    between atoms: _49  and  _50
REMARK   23  A    between atoms: _59  and  _61
REMARK   24  A    between atoms: _61  and  _62
REMARK   25  A    between atoms: _61  and  _64
REMARK   26  A    between atoms: _64  and  _65
REMARK   27  A    between atoms: _68  and  _70
REMARK   28  A    between atoms: _70  and  _71
REMARK   29  A    between atoms: _70  and  _73
REMARK   30  A    between atoms: _73  and  _74
REMARK   31  A    between atoms: _79  and  _81
REMARK   32  A    between atoms: _81  and  _82
REMARK   33  A    between atoms: _85  and  _87
REMARK   34  A    between atoms: _87  and  _88
REMARK   35  A    between atoms: _87  and  _90
REMARK   36  A    between atoms: _90  and  _91
REMARK   37  A    between atoms: _96  and  _97
REMARK   38  A    between atoms: _99  and  _101
REMARK   39  A    between atoms: _101  and  _102
REMARK   40  A    between atoms: _101  and  _104
REMARK   41  A    between atoms: _104  and  _105
REMARK   42  A    between atoms: _105  and  _106
REMARK   43  A    between atoms: _109  and  _111
REMARK   44  A    between atoms: _111  and  _112
REMARK   45  A    between atoms: _111  and  _114
REMARK   46  A    between atoms: _114  and  _115
REMARK   47  A    between atoms: _120  and  _122
REMARK   48  A    between atoms: _122  and  _123
REMARK   49  A    between atoms: _126  and  _128
REMARK   50  A    between atoms: _128  and  _129
REMARK   51  A    between atoms: _132  and  _134
REMARK   52  A    between atoms: _134  and  _135
REMARK   53  A    between atoms: _137  and  _139
REMARK   54  A    between atoms: _139  and  _140
REMARK   55  A    between atoms: _142  and  _144
REMARK   56  A    between atoms: _144  and  _145
REMARK   57  A    between atoms: _144  and  _147
REMARK   58  A    between atoms: _147  and  _148
REMARK   59  A    between atoms: _151  and  _153
REMARK   60  A    between atoms: _153  and  _154
REMARK   61  A    between atoms: _153  and  _156
REMARK   62  A    between atoms: _156  and  _157
REMARK   63  A    between atoms: _162  and  _163
REMARK   64  A    between atoms: _165  and  _167
REMARK   65  A    between atoms: _167  and  _168
REMARK   66  A    between atoms: _171  and  _173
REMARK   67  A    between atoms: _173  and  _174
REMARK   68  A    between atoms: _176  and  _178
REMARK   69  A    between atoms: _178  and  _179
REMARK   70  A    between atoms: _178  and  _181
REMARK   71  A    between atoms: _181  and  _182
REMARK   72  A    between atoms: _186  and  _187
REMARK   73  A    between atoms: _192  and  _194
REMARK   74  A    between atoms: _194  and  _195
REMARK   75  A    between atoms: _198  and  _199
REMARK   76  A    between atoms: _204  and  _206
REMARK   77  A    between atoms: _206  and  _207
REMARK   78  A    between atoms: _206  and  _209
REMARK   79  A    between atoms: _209  and  _210
REMARK   80  A    between atoms: _215  and  _217
REMARK   81  A    between atoms: _217  and  _218
REMARK   82  A    between atoms: _217  and  _220
REMARK   83  A    between atoms: _220  and  _221
REMARK   84  A    between atoms: _226  and  _227
REMARK   85  A    between atoms: _229  and  _231
REMARK   86  A    between atoms: _231  and  _232
REMARK   87  A    between atoms: _231  and  _234
REMARK   88  A    between atoms: _234  and  _235
REMARK   89  A    between atoms: _235  and  _236
REMARK   90  A    between atoms: _239  and  _241
REMARK   91  A    between atoms: _241  and  _242
REMARK   92  A    between atoms: _241  and  _244
REMARK   93  A    between atoms: _244  and  _245
REMARK   94  A    between atoms: _248  and  _250
REMARK   95  A    between atoms: _250  and  _251
REMARK   96  A    between atoms: _250  and  _253
REMARK   97  A    between atoms: _253  and  _254
REMARK   98  A    between atoms: _257  and  _259
REMARK   99  A    between atoms: _259  and  _260
REMARK  100  A    between atoms: _259  and  _262
REMARK  101  A    between atoms: _262  and  _263
REMARK  102  A    between atoms: _266  and  _268
REMARK  103  A    between atoms: _268  and  _269
REMARK  104  A    between atoms: _268  and  _271
REMARK  105  A    between atoms: _274  and  _276
REMARK  106  A    between atoms: _276  and  _277
REMARK  107  A    between atoms: _279  and  _281
REMARK  108  A    between atoms: _281  and  _282
REMARK  109  A    between atoms: _281  and  _284
REMARK  110  A    between atoms: _284  and  _285
REMARK  111  A    between atoms: _285  and  _286
REMARK  112  A    between atoms: _288  and  _290
REMARK  113  A    between atoms: _290  and  _291
REMARK  114  A    between atoms: _290  and  _293
REMARK  115  A    between atoms: _293  and  _294
REMARK  116  A    between atoms: _296  and  _298
REMARK  117  A    between atoms: _298  and  _299
REMARK  118  A    between atoms: _298  and  _301
REMARK  119  A    between atoms: _301  and  _302
REMARK  120  A    between atoms: _305  and  _307
REMARK  121  A    between atoms: _307  and  _308
REMARK  122  A    between atoms: _307  and  _310
REMARK  123  A    between atoms: _310  and  _311
REMARK  124  A    between atoms: _314  and  _316
REMARK  125  A    between atoms: _316  and  _317
REMARK  126  A    between atoms: _316  and  _319
REMARK  127  A    between atoms: _322  and  _324
REMARK  128  A    between atoms: _324  and  _325
REMARK  129  A    between atoms: _324  and  _327
REMARK  130  A    between atoms: _327  and  _328
REMARK  131  A    between atoms: _331  and  _333
REMARK  132  A    between atoms: _333  and  _334
REMARK  133  A    between atoms: _333  and  _336
REMARK  134  A    between atoms: _336  and  _337
REMARK  135  A    between atoms: _342  and  _344
REMARK  136  A    between atoms: _344  and  _345
REMARK  137  A    between atoms: _344  and  _347
REMARK  138  A    between atoms: _347  and  _348
REMARK  139  A    between atoms: _351  and  _353
REMARK  140  A    between atoms: _353  and  _354
REMARK  141  A    between atoms: _357  and  _359
REMARK  142  A    between atoms: _359  and  _360
REMARK  143  A    between atoms: _363  and  _365
REMARK  144  A    between atoms: _365  and  _366
REMARK  145  A    between atoms: _365  and  _368
REMARK  146  A    between atoms: _368  and  _369
REMARK  147  A    between atoms: _372  and  _374
REMARK  148  A    between atoms: _374  and  _375
REMARK  149  A    between atoms: _374  and  _377
REMARK  150  A    between atoms: _377  and  _378
REMARK  151  A    between atoms: _380  and  _382
REMARK  152  A    between atoms: _382  and  _383
REMARK  153  A    between atoms: _382  and  _385
REMARK  154  A    between atoms: _385  and  _386
REMARK  155  A    between atoms: _391  and  _393
REMARK  156  A    between atoms: _393  and  _394
REMARK  157  A    between atoms: _397  and  _399
REMARK  158  A    between atoms: _399  and  _400
REMARK  159  A    between atoms: _399  and  _402
REMARK  160  A    between atoms: _402  and  _403
REMARK  161  A    between atoms: _403  and  _404
REMARK  162  A    between atoms: _407  and  _409
REMARK  163  A    between atoms: _409  and  _410
REMARK  164  A    between atoms: _409  and  _412
REMARK  165  A    between atoms: _415  and  _417
REMARK  166  A    between atoms: _417  and  _418
REMARK  167  A    between atoms: _417  and  _420
REMARK  168  A    between atoms: _420  and  _421
REMARK  169  A    between atoms: _424  and  _426
REMARK  170  A    between atoms: _426  and  _427
REMARK  171  A    between atoms: _429  and  _431
REMARK  172  A    between atoms: _431  and  _432
REMARK  173  A    between atoms: _431  and  _434
REMARK  174  A    between atoms: _434  and  _435
REMARK  175  A    between atoms: _435  and  _436
REMARK  176  A    between atoms: _439  and  _441
REMARK  177  A    between atoms: _441  and  _442
REMARK  178  A    between atoms: _441  and  _444
REMARK  179  A    between atoms: _444  and  _445
REMARK  180  A    between atoms: _451  and  _453
REMARK  181  A    between atoms: _453  and  _454
REMARK  182  A    between atoms: _453  and  _456
REMARK                            x       y       z     vdW  Elec       q    Type
REMARK                         _______ _______ _______ _____ _____    ______ ____
ROOT
ATOM      1  O   HOH     1      49.405  24.339  43.000  0.00  0.00    +0.000 OA
ENDROOT
TORSDOF 0
REMARK  Name = ../refined-set-2016/1g2o/1g2o_pocket.pdb
REMARK  182 active torsions:
REMARK  status: ('A' for Active; 'I' for Inactive)
REMARK    1  A    between atoms: _1  and  _3
REMARK    2  A    between atoms: _3  and  _4
REMARK    3  A    between atoms: _6  and  _8
REMARK    4  A    between atoms: _8  and  _9
REMARK    5  A    between atoms: _8  and  _11
REMARK    6  A    between atoms: _11  and  _12
REMARK    7  A    between atoms: _14  and  _16
REMARK    8  A    between atoms: _16  and  _17
REMARK    9  A    between atoms: _19  and  _21
REMARK   10  A    between atoms: _21  and  _22
REMARK   11  A    between atoms: _25  and  _27
REMARK   12  A    between atoms: _27  and  _28
REMARK   13  A    between atoms: _31  and  _33
REMARK   14  A    between atoms: _33  and  _34
REMARK   15  A    between atoms: _33  and  _36
REMARK   16  A    between atoms: _36  and  _37
REMARK   17  A    between atoms: _42  and  _44
REMARK   18  A    between atoms: _44  and  _45
REMARK   19  A    between atoms: _44  and  _47
REMARK   20  A    between atoms: _47  and  _48
REMARK   21  A    between atoms: _48  and  _49
REMARK   22  A    between atoms: _49  and  _50
REMARK   23  A    between atoms: _59  and  _61
REMARK   24  A    between atoms: _61  and  _62
REMARK   25  A    between atoms: _61  and  _64
REMARK   26  A    between atoms: _64  and  _65
REMARK   27  A    between atoms: _68  and  _70
REMARK   28  A    between atoms: _70  and  _71
REMARK   29  A    between atoms: _70  and  _73
REMARK   30  A    between atoms: _73  and  _74
REMARK   31  A    between atoms: _79  and  _81
REMARK   32  A    between atoms: _81  and  _82
REMARK   33  A    between atoms: _85  and  _87
REMARK   34  A    between atoms: _87  and  _88
REMARK   35  A    between atoms: _87  and  _90
REMARK   36  A    between atoms: _90  and  _91
REMARK   37  A    between atoms: _96  and  _97
REMARK   38  A    between atoms: _99  and  _101
REMARK   39  A    between atoms: _101  and  _102
REMARK   40  A    between atoms: _101  and  _104
REMARK   41  A    between atoms: _104  and  _105
REMARK   42  A    between atoms: _105  and  _106
REMARK   43  A    between atoms: _109  and  _111
REMARK   44  A    between atoms: _111  and  _112
REMARK   45  A    between atoms: _111  and  _114
REMARK   46  A    between atoms: _114  and  _115
REMARK   47  A    between atoms: _120  and  _122
REMARK   48  A    between atoms: _122  and  _123
REMARK   49  A    between atoms: _126  and  _128
REMARK   50  A    between atoms: _128  and  _129
REMARK   51  A    between atoms: _132  and  _134
REMARK   52  A    between atoms: _134  and  _135
REMARK   53  A    between atoms: _137  and  _139
REMARK   54  A    between atoms: _139  and  _140
REMARK   55  A    between atoms: _142  and  _144
REMARK   56  A    between atoms: _144  and  _145
REMARK   57  A    between atoms: _144  and  _147
REMARK   58  A    between atoms: _147  and  _148
REMARK   59  A    between atoms: _151  and  _153
REMARK   60  A    between atoms: _153  and  _154
REMARK   61  A    between atoms: _153  and  _156
REMARK   62  A    between atoms: _156  and  _157
REMARK   63  A    between atoms: _162  and  _163
REMARK   64  A    between atoms: _165  and  _167
REMARK   65  A    between atoms: _167  and  _168
REMARK   66  A    between atoms: _171  and  _173
REMARK   67  A    between atoms: _173  and  _174
REMARK   68  A    between atoms: _176  and  _178
REMARK   69  A    between atoms: _178  and  _179
REMARK   70  A    between atoms: _178  and  _181
REMARK   71  A    between atoms: _181  and  _182
REMARK   72  A    between atoms: _186  and  _187
REMARK   73  A    between atoms: _192  and  _194
REMARK   74  A    between atoms: _194  and  _195
REMARK   75  A    between atoms: _198  and  _199
REMARK   76  A    between atoms: _204  and  _206
REMARK   77  A    between atoms: _206  and  _207
REMARK   78  A    between atoms: _206  and  _209
REMARK   79  A    between atoms: _209  and  _210
REMARK   80  A    between atoms: _215  and  _217
REMARK   81  A    between atoms: _217  and  _218
REMARK   82  A    between atoms: _217  and  _220
REMARK   83  A    between atoms: _220  and  _221
REMARK   84  A    between atoms: _226  and  _227
REMARK   85  A    between atoms: _229  and  _231
REMARK   86  A    between atoms: _231  and  _232
REMARK   87  A    between atoms: _231  and  _234
REMARK   88  A    between atoms: _234  and  _235
REMARK   89  A    between atoms: _235  and  _236
REMARK   90  A    between atoms: _239  and  _241
REMARK   91  A    between atoms: _241  and  _242
REMARK   92  A    between atoms: _241  and  _244
REMARK   93  A    between atoms: _244  and  _245
REMARK   94  A    between atoms: _248  and  _250
REMARK   95  A    between atoms: _250  and  _251
REMARK   96  A    between atoms: _250  and  _253
REMARK   97  A    between atoms: _253  and  _254
REMARK   98  A    between atoms: _257  and  _259
REMARK   99  A    between atoms: _259  and  _260
REMARK  100  A    between atoms: _259  and  _262
REMARK  101  A    between atoms: _262  and  _263
REMARK  102  A    between atoms: _266  and  _268
REMARK  103  A    between atoms: _268  and  _269
REMARK  104  A    between atoms: _268  and  _271
REMARK  105  A    between atoms: _274  and  _276
REMARK  106  A    between atoms: _276  and  _277
REMARK  107  A    between atoms: _279  and  _281
REMARK  108  A    between atoms: _281  and  _282
REMARK  109  A    between atoms: _281  and  _284
REMARK  110  A    between atoms: _284  and  _285
REMARK  111  A    between atoms: _285  and  _286
REMARK  112  A    between atoms: _288  and  _290
REMARK  113  A    between atoms: _290  and  _291
REMARK  114  A    between atoms: _290  and  _293
REMARK  115  A    between atoms: _293  and  _294
REMARK  116  A    between atoms: _296  and  _298
REMARK  117  A    between atoms: _298  and  _299
REMARK  118  A    between atoms: _298  and  _301
REMARK  119  A    between atoms: _301  and  _302
REMARK  120  A    between atoms: _305  and  _307
REMARK  121  A    between atoms: _307  and  _308
REMARK  122  A    between atoms: _307  and  _310
REMARK  123  A    between atoms: _310  and  _311
REMARK  124  A    between atoms: _314  and  _316
REMARK  125  A    between atoms: _316  and  _317
REMARK  126  A    between atoms: _316  and  _319
REMARK  127  A    between atoms: _322  and  _324
REMARK  128  A    between atoms: _324  and  _325
REMARK  129  A    between atoms: _324  and  _327
REMARK  130  A    between atoms: _327  and  _328
REMARK  131  A    between atoms: _331  and  _333
REMARK  132  A    between atoms: _333  and  _334
REMARK  133  A    between atoms: _333  and  _336
REMARK  134  A    between atoms: _336  and  _337
REMARK  135  A    between atoms: _342  and  _344
REMARK  136  A    between atoms: _344  and  _345
REMARK  137  A    between atoms: _344  and  _347
REMARK  138  A    between atoms: _347  and  _348
REMARK  139  A    between atoms: _351  and  _353
REMARK  140  A    between atoms: _353  and  _354
REMARK  141  A    between atoms: _357  and  _359
REMARK  142  A    between atoms: _359  and  _360
REMARK  143  A    between atoms: _363  and  _365
REMARK  144  A    between atoms: _365  and  _366
REMARK  145  A    between atoms: _365  and  _368
REMARK  146  A    between atoms: _368  and  _369
REMARK  147  A    between atoms: _372  and  _374
REMARK  148  A    between atoms: _374  and  _375
REMARK  149  A    between atoms: _374  and  _377
REMARK  150  A    between atoms: _377  and  _378
REMARK  151  A    between atoms: _380  and  _382
REMARK  152  A    between atoms: _382  and  _383
REMARK  153  A    between atoms: _382  and  _385
REMARK  154  A    between atoms: _385  and  _386
REMARK  155  A    between atoms: _391  and  _393
REMARK  156  A    between atoms: _393  and  _394
REMARK  157  A    between atoms: _397  and  _399
REMARK  158  A    between atoms: _399  and  _400
REMARK  159  A    between atoms: _399  and  _402
REMARK  160  A    between atoms: _402  and  _403
REMARK  161  A    between atoms: _403  and  _404
REMARK  162  A    between atoms: _407  and  _409
REMARK  163  A    between atoms: _409  and  _410
REMARK  164  A    between atoms: _409  and  _412
REMARK  165  A    between atoms: _415  and  _417
REMARK  166  A    between atoms: _417  and  _418
REMARK  167  A    between atoms: _417  and  _420
REMARK  168  A    between atoms: _420  and  _421
REMARK  169  A    between atoms: _424  and  _426
REMARK  170  A    between atoms: _426  and  _427
REMARK  171  A    between atoms: _429  and  _431
REMARK  172  A    between atoms: _431  and  _432
REMARK  173  A    between atoms: _431  and  _434
REMARK  174  A    between atoms: _434  and  _435
REMARK  175  A    between atoms: _435  and  _436
REMARK  176  A    between atoms: _439  and  _441
REMARK  177  A    between atoms: _441  and  _442
REMARK  178  A    between atoms: _441  and  _444
REMARK  179  A    between atoms: _444  and  _445
REMARK  180  A    between atoms: _451  and  _453
REMARK  181  A    between atoms: _453  and  _454
REMARK  182  A    between atoms: _453  and  _456
REMARK                            x       y       z     vdW  Elec       q    Type
REMARK                         _______ _______ _______ _____ _____    ______ ____
ROOT
ATOM      1  O   HOH     1      46.726  15.892  37.967  0.00  0.00    +0.000 OA
ENDROOT
TORSDOF 0
REMARK  Name = ../refined-set-2016/1g2o/1g2o_pocket.pdb
REMARK  182 active torsions:
REMARK  status: ('A' for Active; 'I' for Inactive)
REMARK    1  A    between atoms: _1  and  _3
REMARK    2  A    between atoms: _3  and  _4
REMARK    3  A    between atoms: _6  and  _8
REMARK    4  A    between atoms: _8  and  _9
REMARK    5  A    between atoms: _8  and  _11
REMARK    6  A    between atoms: _11  and  _12
REMARK    7  A    between atoms: _14  and  _16
REMARK    8  A    between atoms: _16  and  _17
REMARK    9  A    between atoms: _19  and  _21
REMARK   10  A    between atoms: _21  and  _22
REMARK   11  A    between atoms: _25  and  _27
REMARK   12  A    between atoms: _27  and  _28
REMARK   13  A    between atoms: _31  and  _33
REMARK   14  A    between atoms: _33  and  _34
REMARK   15  A    between atoms: _33  and  _36
REMARK   16  A    between atoms: _36  and  _37
REMARK   17  A    between atoms: _42  and  _44
REMARK   18  A    between atoms: _44  and  _45
REMARK   19  A    between atoms: _44  and  _47
REMARK   20  A    between atoms: _47  and  _48
REMARK   21  A    between atoms: _48  and  _49
REMARK   22  A    between atoms: _49  and  _50
REMARK   23  A    between atoms: _59  and  _61
REMARK   24  A    between atoms: _61  and  _62
REMARK   25  A    between atoms: _61  and  _64
REMARK   26  A    between atoms: _64  and  _65
REMARK   27  A    between atoms: _68  and  _70
REMARK   28  A    between atoms: _70  and  _71
REMARK   29  A    between atoms: _70  and  _73
REMARK   30  A    between atoms: _73  and  _74
REMARK   31  A    between atoms: _79  and  _81
REMARK   32  A    between atoms: _81  and  _82
REMARK   33  A    between atoms: _85  and  _87
REMARK   34  A    between atoms: _87  and  _88
REMARK   35  A    between atoms: _87  and  _90
REMARK   36  A    between atoms: _90  and  _91
REMARK   37  A    between atoms: _96  and  _97
REMARK   38  A    between atoms: _99  and  _101
REMARK   39  A    between atoms: _101  and  _102
REMARK   40  A    between atoms: _101  and  _104
REMARK   41  A    between atoms: _104  and  _105
REMARK   42  A    between atoms: _105  and  _106
REMARK   43  A    between atoms: _109  and  _111
REMARK   44  A    between atoms: _111  and  _112
REMARK   45  A    between atoms: _111  and  _114
REMARK   46  A    between atoms: _114  and  _115
REMARK   47  A    between atoms: _120  and  _122
REMARK   48  A    between atoms: _122  and  _123
REMARK   49  A    between atoms: _126  and  _128
REMARK   50  A    between atoms: _128  and  _129
REMARK   51  A    between atoms: _132  and  _134
REMARK   52  A    between atoms: _134  and  _135
REMARK   53  A    between atoms: _137  and  _139
REMARK   54  A    between atoms: _139  and  _140
REMARK   55  A    between atoms: _142  and  _144
REMARK   56  A    between atoms: _144  and  _145
REMARK   57  A    between atoms: _144  and  _147
REMARK   58  A    between atoms: _147  and  _148
REMARK   59  A    between atoms: _151  and  _153
REMARK   60  A    between atoms: _153  and  _154
REMARK   61  A    between atoms: _153  and  _156
REMARK   62  A    between atoms: _156  and  _157
REMARK   63  A    between atoms: _162  and  _163
REMARK   64  A    between atoms: _165  and  _167
REMARK   65  A    between atoms: _167  and  _168
REMARK   66  A    between atoms: _171  and  _173
REMARK   67  A    between atoms: _173  and  _174
REMARK   68  A    between atoms: _176  and  _178
REMARK   69  A    between atoms: _178  and  _179
REMARK   70  A    between atoms: _178  and  _181
REMARK   71  A    between atoms: _181  and  _182
REMARK   72  A    between atoms: _186  and  _187
REMARK   73  A    between atoms: _192  and  _194
REMARK   74  A    between atoms: _194  and  _195
REMARK   75  A    between atoms: _198  and  _199
REMARK   76  A    between atoms: _204  and  _206
REMARK   77  A    between atoms: _206  and  _207
REMARK   78  A    between atoms: _206  and  _209
REMARK   79  A    between atoms: _209  and  _210
REMARK   80  A    between atoms: _215  and  _217
REMARK   81  A    between atoms: _217  and  _218
REMARK   82  A    between atoms: _217  and  _220
REMARK   83  A    between atoms: _220  and  _221
REMARK   84  A    between atoms: _226  and  _227
REMARK   85  A    between atoms: _229  and  _231
REMARK   86  A    between atoms: _231  and  _232
REMARK   87  A    between atoms: _231  and  _234
REMARK   88  A    between atoms: _234  and  _235
REMARK   89  A    between atoms: _235  and  _236
REMARK   90  A    between atoms: _239  and  _241
REMARK   91  A    between atoms: _241  and  _242
REMARK   92  A    between atoms: _241  and  _244
REMARK   93  A    between atoms: _244  and  _245
REMARK   94  A    between atoms: _248  and  _250
REMARK   95  A    between atoms: _250  and  _251
REMARK   96  A    between atoms: _250  and  _253
REMARK   97  A    between atoms: _253  and  _254
REMARK   98  A    between atoms: _257  and  _259
REMARK   99  A    between atoms: _259  and  _260
REMARK  100  A    between atoms: _259  and  _262
REMARK  101  A    between atoms: _262  and  _263
REMARK  102  A    between atoms: _266  and  _268
REMARK  103  A    between atoms: _268  and  _269
REMARK  104  A    between atoms: _268  and  _271
REMARK  105  A    between atoms: _274  and  _276
REMARK  106  A    between atoms: _276  and  _277
REMARK  107  A    between atoms: _279  and  _281
REMARK  108  A    between atoms: _281  and  _282
REMARK  109  A    between atoms: _281  and  _284
REMARK  110  A    between atoms: _284  and  _285
REMARK  111  A    between atoms: _285  and  _286
REMARK  112  A    between atoms: _288  and  _290
REMARK  113  A    between atoms: _290  and  _291
REMARK  114  A    between atoms: _290  and  _293
REMARK  115  A    between atoms: _293  and  _294
REMARK  116  A    between atoms: _296  and  _298
REMARK  117  A    between atoms: _298  and  _299
REMARK  118  A    between atoms: _298  and  _301
REMARK  119  A    between atoms: _301  and  _302
REMARK  120  A    between atoms: _305  and  _307
REMARK  121  A    between atoms: _307  and  _308
REMARK  122  A    between atoms: _307  and  _310
REMARK  123  A    between atoms: _310  and  _311
REMARK  124  A    between atoms: _314  and  _316
REMARK  125  A    between atoms: _316  and  _317
REMARK  126  A    between atoms: _316  and  _319
REMARK  127  A    between atoms: _322  and  _324
REMARK  128  A    between atoms: _324  and  _325
REMARK  129  A    between atoms: _324  and  _327
REMARK  130  A    between atoms: _327  and  _328
REMARK  131  A    between atoms: _331  and  _333
REMARK  132  A    between atoms: _333  and  _334
REMARK  133  A    between atoms: _333  and  _336
REMARK  134  A    between atoms: _336  and  _337
REMARK  135  A    between atoms: _342  and  _344
REMARK  136  A    between atoms: _344  and  _345
REMARK  137  A    between atoms: _344  and  _347
REMARK  138  A    between atoms: _347  and  _348
REMARK  139  A    between atoms: _351  and  _353
REMARK  140  A    between atoms: _353  and  _354
REMARK  141  A    between atoms: _357  and  _359
REMARK  142  A    between atoms: _359  and  _360
REMARK  143  A    between atoms: _363  and  _365
REMARK  144  A    between atoms: _365  and  _366
REMARK  145  A    between atoms: _365  and  _368
REMARK  146  A    between atoms: _368  and  _369
REMARK  147  A    between atoms: _372  and  _374
REMARK  148  A    between atoms: _374  and  _375
REMARK  149  A    between atoms: _374  and  _377
REMARK  150  A    between atoms: _377  and  _378
REMARK  151  A    between atoms: _380  and  _382
REMARK  152  A    between atoms: _382  and  _383
REMARK  153  A    between atoms: _382  and  _385
REMARK  154  A    between atoms: _385  and  _386
REMARK  155  A    between atoms: _391  and  _393
REMARK  156  A    between atoms: _393  and  _394
REMARK  157  A    between atoms: _397  and  _399
REMARK  158  A    between atoms: _399  and  _400
REMARK  159  A    between atoms: _399  and  _402
REMARK  160  A    between atoms: _402  and  _403
REMARK  161  A    between atoms: _403  and  _404
REMARK  162  A    between atoms: _407  and  _409
REMARK  163  A    between atoms: _409  and  _410
REMARK  164  A    between atoms: _409  and  _412
REMARK  165  A    between atoms: _415  and  _417
REMARK  166  A    between atoms: _417  and  _418
REMARK  167  A    between atoms: _417  and  _420
REMARK  168  A    between atoms: _420  and  _421
REMARK  169  A    between atoms: _424  and  _426
REMARK  170  A    between atoms: _426  and  _427
REMARK  171  A    between atoms: _429  and  _431
REMARK  172  A    between atoms: _431  and  _432
REMARK  173  A    between atoms: _431  and  _434
REMARK  174  A    between atoms: _434  and  _435
REMARK  175  A    between atoms: _435  and  _436
REMARK  176  A    between atoms: _439  and  _441
REMARK  177  A    between atoms: _441  and  _442
REMARK  178  A    between atoms: _441  and  _444
REMARK  179  A    between atoms: _444  and  _445
REMARK  180  A    between atoms: _451  and  _453
REMARK  181  A    between atoms: _453  and  _454
REMARK  182  A    between atoms: _453  and  _456
REMARK                            x       y       z     vdW  Elec       q    Type
REMARK                         _______ _______ _______ _____ _____    ______ ____
ROOT
ATOM      1  O   HOH     1      59.807  20.028  41.463  0.00  0.00    +0.000 OA
ENDROOT
TORSDOF 0
REMARK  Name = ../refined-set-2016/1g2o/1g2o_pocket.pdb
REMARK  182 active torsions:
REMARK  status: ('A' for Active; 'I' for Inactive)
REMARK    1  A    between atoms: _1  and  _3
REMARK    2  A    between atoms: _3  and  _4
REMARK    3  A    between atoms: _6  and  _8
REMARK    4  A    between atoms: _8  and  _9
REMARK    5  A    between atoms: _8  and  _11
REMARK    6  A    between atoms: _11  and  _12
REMARK    7  A    between atoms: _14  and  _16
REMARK    8  A    between atoms: _16  and  _17
REMARK    9  A    between atoms: _19  and  _21
REMARK   10  A    between atoms: _21  and  _22
REMARK   11  A    between atoms: _25  and  _27
REMARK   12  A    between atoms: _27  and  _28
REMARK   13  A    between atoms: _31  and  _33
REMARK   14  A    between atoms: _33  and  _34
REMARK   15  A    between atoms: _33  and  _36
REMARK   16  A    between atoms: _36  and  _37
REMARK   17  A    between atoms: _42  and  _44
REMARK   18  A    between atoms: _44  and  _45
REMARK   19  A    between atoms: _44  and  _47
REMARK   20  A    between atoms: _47  and  _48
REMARK   21  A    between atoms: _48  and  _49
REMARK   22  A    between atoms: _49  and  _50
REMARK   23  A    between atoms: _59  and  _61
REMARK   24  A    between atoms: _61  and  _62
REMARK   25  A    between atoms: _61  and  _64
REMARK   26  A    between atoms: _64  and  _65
REMARK   27  A    between atoms: _68  and  _70
REMARK   28  A    between atoms: _70  and  _71
REMARK   29  A    between atoms: _70  and  _73
REMARK   30  A    between atoms: _73  and  _74
REMARK   31  A    between atoms: _79  and  _81
REMARK   32  A    between atoms: _81  and  _82
REMARK   33  A    between atoms: _85  and  _87
REMARK   34  A    between atoms: _87  and  _88
REMARK   35  A    between atoms: _87  and  _90
REMARK   36  A    between atoms: _90  and  _91
REMARK   37  A    between atoms: _96  and  _97
REMARK   38  A    between atoms: _99  and  _101
REMARK   39  A    between atoms: _101  and  _102
REMARK   40  A    between atoms: _101  and  _104
REMARK   41  A    between atoms: _104  and  _105
REMARK   42  A    between atoms: _105  and  _106
REMARK   43  A    between atoms: _109  and  _111
REMARK   44  A    between atoms: _111  and  _112
REMARK   45  A    between atoms: _111  and  _114
REMARK   46  A    between atoms: _114  and  _115
REMARK   47  A    between atoms: _120  and  _122
REMARK   48  A    between atoms: _122  and  _123
REMARK   49  A    between atoms: _126  and  _128
REMARK   50  A    between atoms: _128  and  _129
REMARK   51  A    between atoms: _132  and  _134
REMARK   52  A    between atoms: _134  and  _135
REMARK   53  A    between atoms: _137  and  _139
REMARK   54  A    between atoms: _139  and  _140
REMARK   55  A    between atoms: _142  and  _144
REMARK   56  A    between atoms: _144  and  _145
REMARK   57  A    between atoms: _144  and  _147
REMARK   58  A    between atoms: _147  and  _148
REMARK   59  A    between atoms: _151  and  _153
REMARK   60  A    between atoms: _153  and  _154
REMARK   61  A    between atoms: _153  and  _156
REMARK   62  A    between atoms: _156  and  _157
REMARK   63  A    between atoms: _162  and  _163
REMARK   64  A    between atoms: _165  and  _167
REMARK   65  A    between atoms: _167  and  _168
REMARK   66  A    between atoms: _171  and  _173
REMARK   67  A    between atoms: _173  and  _174
REMARK   68  A    between atoms: _176  and  _178
REMARK   69  A    between atoms: _178  and  _179
REMARK   70  A    between atoms: _178  and  _181
REMARK   71  A    between atoms: _181  and  _182
REMARK   72  A    between atoms: _186  and  _187
REMARK   73  A    between atoms: _192  and  _194
REMARK   74  A    between atoms: _194  and  _195
REMARK   75  A    between atoms: _198  and  _199
REMARK   76  A    between atoms: _204  and  _206
REMARK   77  A    between atoms: _206  and  _207
REMARK   78  A    between atoms: _206  and  _209
REMARK   79  A    between atoms: _209  and  _210
REMARK   80  A    between atoms: _215  and  _217
REMARK   81  A    between atoms: _217  and  _218
REMARK   82  A    between atoms: _217  and  _220
REMARK   83  A    between atoms: _220  and  _221
REMARK   84  A    between atoms: _226  and  _227
REMARK   85  A    between atoms: _229  and  _231
REMARK   86  A    between atoms: _231  and  _232
REMARK   87  A    between atoms: _231  and  _234
REMARK   88  A    between atoms: _234  and  _235
REMARK   89  A    between atoms: _235  and  _236
REMARK   90  A    between atoms: _239  and  _241
REMARK   91  A    between atoms: _241  and  _242
REMARK   92  A    between atoms: _241  and  _244
REMARK   93  A    between atoms: _244  and  _245
REMARK   94  A    between atoms: _248  and  _250
REMARK   95  A    between atoms: _250  and  _251
REMARK   96  A    between atoms: _250  and  _253
REMARK   97  A    between atoms: _253  and  _254
REMARK   98  A    between atoms: _257  and  _259
REMARK   99  A    between atoms: _259  and  _260
REMARK  100  A    between atoms: _259  and  _262
REMARK  101  A    between atoms: _262  and  _263
REMARK  102  A    between atoms: _266  and  _268
REMARK  103  A    between atoms: _268  and  _269
REMARK  104  A    between atoms: _268  and  _271
REMARK  105  A    between atoms: _274  and  _276
REMARK  106  A    between atoms: _276  and  _277
REMARK  107  A    between atoms: _279  and  _281
REMARK  108  A    between atoms: _281  and  _282
REMARK  109  A    between atoms: _281  and  _284
REMARK  110  A    between atoms: _284  and  _285
REMARK  111  A    between atoms: _285  and  _286
REMARK  112  A    between atoms: _288  and  _290
REMARK  113  A    between atoms: _290  and  _291
REMARK  114  A    between atoms: _290  and  _293
REMARK  115  A    between atoms: _293  and  _294
REMARK  116  A    between atoms: _296  and  _298
REMARK  117  A    between atoms: _298  and  _299
REMARK  118  A    between atoms: _298  and  _301
REMARK  119  A    between atoms: _301  and  _302
REMARK  120  A    between atoms: _305  and  _307
REMARK  121  A    between atoms: _307  and  _308
REMARK  122  A    between atoms: _307  and  _310
REMARK  123  A    between atoms: _310  and  _311
REMARK  124  A    between atoms: _314  and  _316
REMARK  125  A    between atoms: _316  and  _317
REMARK  126  A    between atoms: _316  and  _319
REMARK  127  A    between atoms: _322  and  _324
REMARK  128  A    between atoms: _324  and  _325
REMARK  129  A    between atoms: _324  and  _327
REMARK  130  A    between atoms: _327  and  _328
REMARK  131  A    between atoms: _331  and  _333
REMARK  132  A    between atoms: _333  and  _334
REMARK  133  A    between atoms: _333  and  _336
REMARK  134  A    between atoms: _336  and  _337
REMARK  135  A    between atoms: _342  and  _344
REMARK  136  A    between atoms: _344  and  _345
REMARK  137  A    between atoms: _344  and  _347
REMARK  138  A    between atoms: _347  and  _348
REMARK  139  A    between atoms: _351  and  _353
REMARK  140  A    between atoms: _353  and  _354
REMARK  141  A    between atoms: _357  and  _359
REMARK  142  A    between atoms: _359  and  _360
REMARK  143  A    between atoms: _363  and  _365
REMARK  144  A    between atoms: _365  and  _366
REMARK  145  A    between atoms: _365  and  _368
REMARK  146  A    between atoms: _368  and  _369
REMARK  147  A    between atoms: _372  and  _374
REMARK  148  A    between atoms: _374  and  _375
REMARK  149  A    between atoms: _374  and  _377
REMARK  150  A    between atoms: _377  and  _378
REMARK  151  A    between atoms: _380  and  _382
REMARK  152  A    between atoms: _382  and  _383
REMARK  153  A    between atoms: _382  and  _385
REMARK  154  A    between atoms: _385  and  _386
REMARK  155  A    between atoms: _391  and  _393
REMARK  156  A    between atoms: _393  and  _394
REMARK  157  A    between atoms: _397  and  _399
REMARK  158  A    between atoms: _399  and  _400
REMARK  159  A    between atoms: _399  and  _402
REMARK  160  A    between atoms: _402  and  _403
REMARK  161  A    between atoms: _403  and  _404
REMARK  162  A    between atoms: _407  and  _409
REMARK  163  A    between atoms: _409  and  _410
REMARK  164  A    between atoms: _409  and  _412
REMARK  165  A    between atoms: _415  and  _417
REMARK  166  A    between atoms: _417  and  _418
REMARK  167  A    between atoms: _417  and  _420
REMARK  168  A    between atoms: _420  and  _421
REMARK  169  A    between atoms: _424  and  _426
REMARK  170  A    between atoms: _426  and  _427
REMARK  171  A    between atoms: _429  and  _431
REMARK  172  A    between atoms: _431  and  _432
REMARK  173  A    between atoms: _431  and  _434
REMARK  174  A    between atoms: _434  and  _435
REMARK  175  A    between atoms: _435  and  _436
REMARK  176  A    between atoms: _439  and  _441
REMARK  177  A    between atoms: _441  and  _442
REMARK  178  A    between atoms: _441  and  _444
REMARK  179  A    between atoms: _444  and  _445
REMARK  180  A    between atoms: _451  and  _453
REMARK  181  A    between atoms: _453  and  _454
REMARK  182  A    between atoms: _453  and  _456
REMARK                            x       y       z     vdW  Elec       q    Type
REMARK                         _______ _______ _______ _____ _____    ______ ____
ROOT
ATOM      1  O   HOH     1      55.218  23.847  47.606  0.00  0.00    +0.000 OA
ENDROOT
TORSDOF 0
REMARK  Name = ../refined-set-2016/1g2o/1g2o_pocket.pdb
REMARK  182 active torsions:
REMARK  status: ('A' for Active; 'I' for Inactive)
REMARK    1  A    between atoms: _1  and  _3
REMARK    2  A    between atoms: _3  and  _4
REMARK    3  A    between atoms: _6  and  _8
REMARK    4  A    between atoms: _8  and  _9
REMARK    5  A    between atoms: _8  and  _11
REMARK    6  A    between atoms: _11  and  _12
REMARK    7  A    between atoms: _14  and  _16
REMARK    8  A    between atoms: _16  and  _17
REMARK    9  A    between atoms: _19  and  _21
REMARK   10  A    between atoms: _21  and  _22
REMARK   11  A    between atoms: _25  and  _27
REMARK   12  A    between atoms: _27  and  _28
REMARK   13  A    between atoms: _31  and  _33
REMARK   14  A    between atoms: _33  and  _34
REMARK   15  A    between atoms: _33  and  _36
REMARK   16  A    between atoms: _36  and  _37
REMARK   17  A    between atoms: _42  and  _44
REMARK   18  A    between atoms: _44  and  _45
REMARK   19  A    between atoms: _44  and  _47
REMARK   20  A    between atoms: _47  and  _48
REMARK   21  A    between atoms: _48  and  _49
REMARK   22  A    between atoms: _49  and  _50
REMARK   23  A    between atoms: _59  and  _61
REMARK   24  A    between atoms: _61  and  _62
REMARK   25  A    between atoms: _61  and  _64
REMARK   26  A    between atoms: _64  and  _65
REMARK   27  A    between atoms: _68  and  _70
REMARK   28  A    between atoms: _70  and  _71
REMARK   29  A    between atoms: _70  and  _73
REMARK   30  A    between atoms: _73  and  _74
REMARK   31  A    between atoms: _79  and  _81
REMARK   32  A    between atoms: _81  and  _82
REMARK   33  A    between atoms: _85  and  _87
REMARK   34  A    between atoms: _87  and  _88
REMARK   35  A    between atoms: _87  and  _90
REMARK   36  A    between atoms: _90  and  _91
REMARK   37  A    between atoms: _96  and  _97
REMARK   38  A    between atoms: _99  and  _101
REMARK   39  A    between atoms: _101  and  _102
REMARK   40  A    between atoms: _101  and  _104
REMARK   41  A    between atoms: _104  and  _105
REMARK   42  A    between atoms: _105  and  _106
REMARK   43  A    between atoms: _109  and  _111
REMARK   44  A    between atoms: _111  and  _112
REMARK   45  A    between atoms: _111  and  _114
REMARK   46  A    between atoms: _114  and  _115
REMARK   47  A    between atoms: _120  and  _122
REMARK   48  A    between atoms: _122  and  _123
REMARK   49  A    between atoms: _126  and  _128
REMARK   50  A    between atoms: _128  and  _129
REMARK   51  A    between atoms: _132  and  _134
REMARK   52  A    between atoms: _134  and  _135
REMARK   53  A    between atoms: _137  and  _139
REMARK   54  A    between atoms: _139  and  _140
REMARK   55  A    between atoms: _142  and  _144
REMARK   56  A    between atoms: _144  and  _145
REMARK   57  A    between atoms: _144  and  _147
REMARK   58  A    between atoms: _147  and  _148
REMARK   59  A    between atoms: _151  and  _153
REMARK   60  A    between atoms: _153  and  _154
REMARK   61  A    between atoms: _153  and  _156
REMARK   62  A    between atoms: _156  and  _157
REMARK   63  A    between atoms: _162  and  _163
REMARK   64  A    between atoms: _165  and  _167
REMARK   65  A    between atoms: _167  and  _168
REMARK   66  A    between atoms: _171  and  _173
REMARK   67  A    between atoms: _173  and  _174
REMARK   68  A    between atoms: _176  and  _178
REMARK   69  A    between atoms: _178  and  _179
REMARK   70  A    between atoms: _178  and  _181
REMARK   71  A    between atoms: _181  and  _182
REMARK   72  A    between atoms: _186  and  _187
REMARK   73  A    between atoms: _192  and  _194
REMARK   74  A    between atoms: _194  and  _195
REMARK   75  A    between atoms: _198  and  _199
REMARK   76  A    between atoms: _204  and  _206
REMARK   77  A    between atoms: _206  and  _207
REMARK   78  A    between atoms: _206  and  _209
REMARK   79  A    between atoms: _209  and  _210
REMARK   80  A    between atoms: _215  and  _217
REMARK   81  A    between atoms: _217  and  _218
REMARK   82  A    between atoms: _217  and  _220
REMARK   83  A    between atoms: _220  and  _221
REMARK   84  A    between atoms: _226  and  _227
REMARK   85  A    between atoms: _229  and  _231
REMARK   86  A    between atoms: _231  and  _232
REMARK   87  A    between atoms: _231  and  _234
REMARK   88  A    between atoms: _234  and  _235
REMARK   89  A    between atoms: _235  and  _236
REMARK   90  A    between atoms: _239  and  _241
REMARK   91  A    between atoms: _241  and  _242
REMARK   92  A    between atoms: _241  and  _244
REMARK   93  A    between atoms: _244  and  _245
REMARK   94  A    between atoms: _248  and  _250
REMARK   95  A    between atoms: _250  and  _251
REMARK   96  A    between atoms: _250  and  _253
REMARK   97  A    between atoms: _253  and  _254
REMARK   98  A    between atoms: _257  and  _259
REMARK   99  A    between atoms: _259  and  _260
REMARK  100  A    between atoms: _259  and  _262
REMARK  101  A    between atoms: _262  and  _263
REMARK  102  A    between atoms: _266  and  _268
REMARK  103  A    between atoms: _268  and  _269
REMARK  104  A    between atoms: _268  and  _271
REMARK  105  A    between atoms: _274  and  _276
REMARK  106  A    between atoms: _276  and  _277
REMARK  107  A    between atoms: _279  and  _281
REMARK  108  A    between atoms: _281  and  _282
REMARK  109  A    between atoms: _281  and  _284
REMARK  110  A    between atoms: _284  and  _285
REMARK  111  A    between atoms: _285  and  _286
REMARK  112  A    between atoms: _288  and  _290
REMARK  113  A    between atoms: _290  and  _291
REMARK  114  A    between atoms: _290  and  _293
REMARK  115  A    between atoms: _293  and  _294
REMARK  116  A    between atoms: _296  and  _298
REMARK  117  A    between atoms: _298  and  _299
REMARK  118  A    between atoms: _298  and  _301
REMARK  119  A    between atoms: _301  and  _302
REMARK  120  A    between atoms: _305  and  _307
REMARK  121  A    between atoms: _307  and  _308
REMARK  122  A    between atoms: _307  and  _310
REMARK  123  A    between atoms: _310  and  _311
REMARK  124  A    between atoms: _314  and  _316
REMARK  125  A    between atoms: _316  and  _317
REMARK  126  A    between atoms: _316  and  _319
REMARK  127  A    between atoms: _322  and  _324
REMARK  128  A    between atoms: _324  and  _325
REMARK  129  A    between atoms: _324  and  _327
REMARK  130  A    between atoms: _327  and  _328
REMARK  131  A    between atoms: _331  and  _333
REMARK  132  A    between atoms: _333  and  _334
REMARK  133  A    between atoms: _333  and  _336
REMARK  134  A    between atoms: _336  and  _337
REMARK  135  A    between atoms: _342  and  _344
REMARK  136  A    between atoms: _344  and  _345
REMARK  137  A    between atoms: _344  and  _347
REMARK  138  A    between atoms: _347  and  _348
REMARK  139  A    between atoms: _351  and  _353
REMARK  140  A    between atoms: _353  and  _354
REMARK  141  A    between atoms: _357  and  _359
REMARK  142  A    between atoms: _359  and  _360
REMARK  143  A    between atoms: _363  and  _365
REMARK  144  A    between atoms: _365  and  _366
REMARK  145  A    between atoms: _365  and  _368
REMARK  146  A    between atoms: _368  and  _369
REMARK  147  A    between atoms: _372  and  _374
REMARK  148  A    between atoms: _374  and  _375
REMARK  149  A    between atoms: _374  and  _377
REMARK  150  A    between atoms: _377  and  _378
REMARK  151  A    between atoms: _380  and  _382
REMARK  152  A    between atoms: _382  and  _383
REMARK  153  A    between atoms: _382  and  _385
REMARK  154  A    between atoms: _385  and  _386
REMARK  155  A    between atoms: _391  and  _393
REMARK  156  A    between atoms: _393  and  _394
REMARK  157  A    between atoms: _397  and  _399
REMARK  158  A    between atoms: _399  and  _400
REMARK  159  A    between atoms: _399  and  _402
REMARK  160  A    between atoms: _402  and  _403
REMARK  161  A    between atoms: _403  and  _404
REMARK  162  A    between atoms: _407  and  _409
REMARK  163  A    between atoms: _409  and  _410
REMARK  164  A    between atoms: _409  and  _412
REMARK  165  A    between atoms: _415  and  _417
REMARK  166  A    between atoms: _417  and  _418
REMARK  167  A    between atoms: _417  and  _420
REMARK  168  A    between atoms: _420  and  _421
REMARK  169  A    between atoms: _424  and  _426
REMARK  170  A    between atoms: _426  and  _427
REMARK  171  A    between atoms: _429  and  _431
REMARK  172  A    between atoms: _431  and  _432
REMARK  173  A    between atoms: _431  and  _434
REMARK  174  A    between atoms: _434  and  _435
REMARK  175  A    between atoms: _435  and  _436
REMARK  176  A    between atoms: _439  and  _441
REMARK  177  A    between atoms: _441  and  _442
REMARK  178  A    between atoms: _441  and  _444
REMARK  179  A    between atoms: _444  and  _445
REMARK  180  A    between atoms: _451  and  _453
REMARK  181  A    between atoms: _453  and  _454
REMARK  182  A    between atoms: _453  and  _456
REMARK                            x       y       z     vdW  Elec       q    Type
REMARK                         _______ _______ _______ _____ _____    ______ ____
ROOT
ATOM      1  O   HOH     1      47.348  23.715  40.277  0.00  0.00    +0.000 OA
ENDROOT
TORSDOF 0
REMARK  Name = ../refined-set-2016/1g2o/1g2o_pocket.pdb
REMARK  182 active torsions:
REMARK  status: ('A' for Active; 'I' for Inactive)
REMARK    1  A    between atoms: _1  and  _3
REMARK    2  A    between atoms: _3  and  _4
REMARK    3  A    between atoms: _6  and  _8
REMARK    4  A    between atoms: _8  and  _9
REMARK    5  A    between atoms: _8  and  _11
REMARK    6  A    between atoms: _11  and  _12
REMARK    7  A    between atoms: _14  and  _16
REMARK    8  A    between atoms: _16  and  _17
REMARK    9  A    between atoms: _19  and  _21
REMARK   10  A    between atoms: _21  and  _22
REMARK   11  A    between atoms: _25  and  _27
REMARK   12  A    between atoms: _27  and  _28
REMARK   13  A    between atoms: _31  and  _33
REMARK   14  A    between atoms: _33  and  _34
REMARK   15  A    between atoms: _33  and  _36
REMARK   16  A    between atoms: _36  and  _37
REMARK   17  A    between atoms: _42  and  _44
REMARK   18  A    between atoms: _44  and  _45
REMARK   19  A    between atoms: _44  and  _47
REMARK   20  A    between atoms: _47  and  _48
REMARK   21  A    between atoms: _48  and  _49
REMARK   22  A    between atoms: _49  and  _50
REMARK   23  A    between atoms: _59  and  _61
REMARK   24  A    between atoms: _61  and  _62
REMARK   25  A    between atoms: _61  and  _64
REMARK   26  A    between atoms: _64  and  _65
REMARK   27  A    between atoms: _68  and  _70
REMARK   28  A    between atoms: _70  and  _71
REMARK   29  A    between atoms: _70  and  _73
REMARK   30  A    between atoms: _73  and  _74
REMARK   31  A    between atoms: _79  and  _81
REMARK   32  A    between atoms: _81  and  _82
REMARK   33  A    between atoms: _85  and  _87
REMARK   34  A    between atoms: _87  and  _88
REMARK   35  A    between atoms: _87  and  _90
REMARK   36  A    between atoms: _90  and  _91
REMARK   37  A    between atoms: _96  and  _97
REMARK   38  A    between atoms: _99  and  _101
REMARK   39  A    between atoms: _101  and  _102
REMARK   40  A    between atoms: _101  and  _104
REMARK   41  A    between atoms: _104  and  _105
REMARK   42  A    between atoms: _105  and  _106
REMARK   43  A    between atoms: _109  and  _111
REMARK   44  A    between atoms: _111  and  _112
REMARK   45  A    between atoms: _111  and  _114
REMARK   46  A    between atoms: _114  and  _115
REMARK   47  A    between atoms: _120  and  _122
REMARK   48  A    between atoms: _122  and  _123
REMARK   49  A    between atoms: _126  and  _128
REMARK   50  A    between atoms: _128  and  _129
REMARK   51  A    between atoms: _132  and  _134
REMARK   52  A    between atoms: _134  and  _135
REMARK   53  A    between atoms: _137  and  _139
REMARK   54  A    between atoms: _139  and  _140
REMARK   55  A    between atoms: _142  and  _144
REMARK   56  A    between atoms: _144  and  _145
REMARK   57  A    between atoms: _144  and  _147
REMARK   58  A    between atoms: _147  and  _148
REMARK   59  A    between atoms: _151  and  _153
REMARK   60  A    between atoms: _153  and  _154
REMARK   61  A    between atoms: _153  and  _156
REMARK   62  A    between atoms: _156  and  _157
REMARK   63  A    between atoms: _162  and  _163
REMARK   64  A    between atoms: _165  and  _167
REMARK   65  A    between atoms: _167  and  _168
REMARK   66  A    between atoms: _171  and  _173
REMARK   67  A    between atoms: _173  and  _174
REMARK   68  A    between atoms: _176  and  _178
REMARK   69  A    between atoms: _178  and  _179
REMARK   70  A    between atoms: _178  and  _181
REMARK   71  A    between atoms: _181  and  _182
REMARK   72  A    between atoms: _186  and  _187
REMARK   73  A    between atoms: _192  and  _194
REMARK   74  A    between atoms: _194  and  _195
REMARK   75  A    between atoms: _198  and  _199
REMARK   76  A    between atoms: _204  and  _206
REMARK   77  A    between atoms: _206  and  _207
REMARK   78  A    between atoms: _206  and  _209
REMARK   79  A    between atoms: _209  and  _210
REMARK   80  A    between atoms: _215  and  _217
REMARK   81  A    between atoms: _217  and  _218
REMARK   82  A    between atoms: _217  and  _220
REMARK   83  A    between atoms: _220  and  _221
REMARK   84  A    between atoms: _226  and  _227
REMARK   85  A    between atoms: _229  and  _231
REMARK   86  A    between atoms: _231  and  _232
REMARK   87  A    between atoms: _231  and  _234
REMARK   88  A    between atoms: _234  and  _235
REMARK   89  A    between atoms: _235  and  _236
REMARK   90  A    between atoms: _239  and  _241
REMARK   91  A    between atoms: _241  and  _242
REMARK   92  A    between atoms: _241  and  _244
REMARK   93  A    between atoms: _244  and  _245
REMARK   94  A    between atoms: _248  and  _250
REMARK   95  A    between atoms: _250  and  _251
REMARK   96  A    between atoms: _250  and  _253
REMARK   97  A    between atoms: _253  and  _254
REMARK   98  A    between atoms: _257  and  _259
REMARK   99  A    between atoms: _259  and  _260
REMARK  100  A    between atoms: _259  and  _262
REMARK  101  A    between atoms: _262  and  _263
REMARK  102  A    between atoms: _266  and  _268
REMARK  103  A    between atoms: _268  and  _269
REMARK  104  A    between atoms: _268  and  _271
REMARK  105  A    between atoms: _274  and  _276
REMARK  106  A    between atoms: _276  and  _277
REMARK  107  A    between atoms: _279  and  _281
REMARK  108  A    between atoms: _281  and  _282
REMARK  109  A    between atoms: _281  and  _284
REMARK  110  A    between atoms: _284  and  _285
REMARK  111  A    between atoms: _285  and  _286
REMARK  112  A    between atoms: _288  and  _290
REMARK  113  A    between atoms: _290  and  _291
REMARK  114  A    between atoms: _290  and  _293
REMARK  115  A    between atoms: _293  and  _294
REMARK  116  A    between atoms: _296  and  _298
REMARK  117  A    between atoms: _298  and  _299
REMARK  118  A    between atoms: _298  and  _301
REMARK  119  A    between atoms: _301  and  _302
REMARK  120  A    between atoms: _305  and  _307
REMARK  121  A    between atoms: _307  and  _308
REMARK  122  A    between atoms: _307  and  _310
REMARK  123  A    between atoms: _310  and  _311
REMARK  124  A    between atoms: _314  and  _316
REMARK  125  A    between atoms: _316  and  _317
REMARK  126  A    between atoms: _316  and  _319
REMARK  127  A    between atoms: _322  and  _324
REMARK  128  A    between atoms: _324  and  _325
REMARK  129  A    between atoms: _324  and  _327
REMARK  130  A    between atoms: _327  and  _328
REMARK  131  A    between atoms: _331  and  _333
REMARK  132  A    between atoms: _333  and  _334
REMARK  133  A    between atoms: _333  and  _336
REMARK  134  A    between atoms: _336  and  _337
REMARK  135  A    between atoms: _342  and  _344
REMARK  136  A    between atoms: _344  and  _345
REMARK  137  A    between atoms: _344  and  _347
REMARK  138  A    between atoms: _347  and  _348
REMARK  139  A    between atoms: _351  and  _353
REMARK  140  A    between atoms: _353  and  _354
REMARK  141  A    between atoms: _357  and  _359
REMARK  142  A    between atoms: _359  and  _360
REMARK  143  A    between atoms: _363  and  _365
REMARK  144  A    between atoms: _365  and  _366
REMARK  145  A    between atoms: _365  and  _368
REMARK  146  A    between atoms: _368  and  _369
REMARK  147  A    between atoms: _372  and  _374
REMARK  148  A    between atoms: _374  and  _375
REMARK  149  A    between atoms: _374  and  _377
REMARK  150  A    between atoms: _377  and  _378
REMARK  151  A    between atoms: _380  and  _382
REMARK  152  A    between atoms: _382  and  _383
REMARK  153  A    between atoms: _382  and  _385
REMARK  154  A    between atoms: _385  and  _386
REMARK  155  A    between atoms: _391  and  _393
REMARK  156  A    between atoms: _393  and  _394
REMARK  157  A    between atoms: _397  and  _399
REMARK  158  A    between atoms: _399  and  _400
REMARK  159  A    between atoms: _399  and  _402
REMARK  160  A    between atoms: _402  and  _403
REMARK  161  A    between atoms: _403  and  _404
REMARK  162  A    between atoms: _407  and  _409
REMARK  163  A    between atoms: _409  and  _410
REMARK  164  A    between atoms: _409  and  _412
REMARK  165  A    between atoms: _415  and  _417
REMARK  166  A    between atoms: _417  and  _418
REMARK  167  A    between atoms: _417  and  _420
REMARK  168  A    between atoms: _420  and  _421
REMARK  169  A    between atoms: _424  and  _426
REMARK  170  A    between atoms: _426  and  _427
REMARK  171  A    between atoms: _429  and  _431
REMARK  172  A    between atoms: _431  and  _432
REMARK  173  A    between atoms: _431  and  _434
REMARK  174  A    between atoms: _434  and  _435
REMARK  175  A    between atoms: _435  and  _436
REMARK  176  A    between atoms: _439  and  _441
REMARK  177  A    between atoms: _441  and  _442
REMARK  178  A    between atoms: _441  and  _444
REMARK  179  A    between atoms: _444  and  _445
REMARK  180  A    between atoms: _451  and  _453
REMARK  181  A    between atoms: _453  and  _454
REMARK  182  A    between atoms: _453  and  _456
REMARK                            x       y       z     vdW  Elec       q    Type
REMARK                         _______ _______ _______ _____ _____    ______ ____
ROOT
ATOM      1  O   HOH     1      51.508   7.647  45.444  0.00  0.00    +0.000 OA
ENDROOT
TORSDOF 0
REMARK  Name = ../refined-set-2016/1g2o/1g2o_pocket.pdb
REMARK  182 active torsions:
REMARK  status: ('A' for Active; 'I' for Inactive)
REMARK    1  A    between atoms: _1  and  _3
REMARK    2  A    between atoms: _3  and  _4
REMARK    3  A    between atoms: _6  and  _8
REMARK    4  A    between atoms: _8  and  _9
REMARK    5  A    between atoms: _8  and  _11
REMARK    6  A    between atoms: _11  and  _12
REMARK    7  A    between atoms: _14  and  _16
REMARK    8  A    between atoms: _16  and  _17
REMARK    9  A    between atoms: _19  and  _21
REMARK   10  A    between atoms: _21  and  _22
REMARK   11  A    between atoms: _25  and  _27
REMARK   12  A    between atoms: _27  and  _28
REMARK   13  A    between atoms: _31  and  _33
REMARK   14  A    between atoms: _33  and  _34
REMARK   15  A    between atoms: _33  and  _36
REMARK   16  A    between atoms: _36  and  _37
REMARK   17  A    between atoms: _42  and  _44
REMARK   18  A    between atoms: _44  and  _45
REMARK   19  A    between atoms: _44  and  _47
REMARK   20  A    between atoms: _47  and  _48
REMARK   21  A    between atoms: _48  and  _49
REMARK   22  A    between atoms: _49  and  _50
REMARK   23  A    between atoms: _59  and  _61
REMARK   24  A    between atoms: _61  and  _62
REMARK   25  A    between atoms: _61  and  _64
REMARK   26  A    between atoms: _64  and  _65
REMARK   27  A    between atoms: _68  and  _70
REMARK   28  A    between atoms: _70  and  _71
REMARK   29  A    between atoms: _70  and  _73
REMARK   30  A    between atoms: _73  and  _74
REMARK   31  A    between atoms: _79  and  _81
REMARK   32  A    between atoms: _81  and  _82
REMARK   33  A    between atoms: _85  and  _87
REMARK   34  A    between atoms: _87  and  _88
REMARK   35  A    between atoms: _87  and  _90
REMARK   36  A    between atoms: _90  and  _91
REMARK   37  A    between atoms: _96  and  _97
REMARK   38  A    between atoms: _99  and  _101
REMARK   39  A    between atoms: _101  and  _102
REMARK   40  A    between atoms: _101  and  _104
REMARK   41  A    between atoms: _104  and  _105
REMARK   42  A    between atoms: _105  and  _106
REMARK   43  A    between atoms: _109  and  _111
REMARK   44  A    between atoms: _111  and  _112
REMARK   45  A    between atoms: _111  and  _114
REMARK   46  A    between atoms: _114  and  _115
REMARK   47  A    between atoms: _120  and  _122
REMARK   48  A    between atoms: _122  and  _123
REMARK   49  A    between atoms: _126  and  _128
REMARK   50  A    between atoms: _128  and  _129
REMARK   51  A    between atoms: _132  and  _134
REMARK   52  A    between atoms: _134  and  _135
REMARK   53  A    between atoms: _137  and  _139
REMARK   54  A    between atoms: _139  and  _140
REMARK   55  A    between atoms: _142  and  _144
REMARK   56  A    between atoms: _144  and  _145
REMARK   57  A    between atoms: _144  and  _147
REMARK   58  A    between atoms: _147  and  _148
REMARK   59  A    between atoms: _151  and  _153
REMARK   60  A    between atoms: _153  and  _154
REMARK   61  A    between atoms: _153  and  _156
REMARK   62  A    between atoms: _156  and  _157
REMARK   63  A    between atoms: _162  and  _163
REMARK   64  A    between atoms: _165  and  _167
REMARK   65  A    between atoms: _167  and  _168
REMARK   66  A    between atoms: _171  and  _173
REMARK   67  A    between atoms: _173  and  _174
REMARK   68  A    between atoms: _176  and  _178
REMARK   69  A    between atoms: _178  and  _179
REMARK   70  A    between atoms: _178  and  _181
REMARK   71  A    between atoms: _181  and  _182
REMARK   72  A    between atoms: _186  and  _187
REMARK   73  A    between atoms: _192  and  _194
REMARK   74  A    between atoms: _194  and  _195
REMARK   75  A    between atoms: _198  and  _199
REMARK   76  A    between atoms: _204  and  _206
REMARK   77  A    between atoms: _206  and  _207
REMARK   78  A    between atoms: _206  and  _209
REMARK   79  A    between atoms: _209  and  _210
REMARK   80  A    between atoms: _215  and  _217
REMARK   81  A    between atoms: _217  and  _218
REMARK   82  A    between atoms: _217  and  _220
REMARK   83  A    between atoms: _220  and  _221
REMARK   84  A    between atoms: _226  and  _227
REMARK   85  A    between atoms: _229  and  _231
REMARK   86  A    between atoms: _231  and  _232
REMARK   87  A    between atoms: _231  and  _234
REMARK   88  A    between atoms: _234  and  _235
REMARK   89  A    between atoms: _235  and  _236
REMARK   90  A    between atoms: _239  and  _241
REMARK   91  A    between atoms: _241  and  _242
REMARK   92  A    between atoms: _241  and  _244
REMARK   93  A    between atoms: _244  and  _245
REMARK   94  A    between atoms: _248  and  _250
REMARK   95  A    between atoms: _250  and  _251
REMARK   96  A    between atoms: _250  and  _253
REMARK   97  A    between atoms: _253  and  _254
REMARK   98  A    between atoms: _257  and  _259
REMARK   99  A    between atoms: _259  and  _260
REMARK  100  A    between atoms: _259  and  _262
REMARK  101  A    between atoms: _262  and  _263
REMARK  102  A    between atoms: _266  and  _268
REMARK  103  A    between atoms: _268  and  _269
REMARK  104  A    between atoms: _268  and  _271
REMARK  105  A    between atoms: _274  and  _276
REMARK  106  A    between atoms: _276  and  _277
REMARK  107  A    between atoms: _279  and  _281
REMARK  108  A    between atoms: _281  and  _282
REMARK  109  A    between atoms: _281  and  _284
REMARK  110  A    between atoms: _284  and  _285
REMARK  111  A    between atoms: _285  and  _286
REMARK  112  A    between atoms: _288  and  _290
REMARK  113  A    between atoms: _290  and  _291
REMARK  114  A    between atoms: _290  and  _293
REMARK  115  A    between atoms: _293  and  _294
REMARK  116  A    between atoms: _296  and  _298
REMARK  117  A    between atoms: _298  and  _299
REMARK  118  A    between atoms: _298  and  _301
REMARK  119  A    between atoms: _301  and  _302
REMARK  120  A    between atoms: _305  and  _307
REMARK  121  A    between atoms: _307  and  _308
REMARK  122  A    between atoms: _307  and  _310
REMARK  123  A    between atoms: _310  and  _311
REMARK  124  A    between atoms: _314  and  _316
REMARK  125  A    between atoms: _316  and  _317
REMARK  126  A    between atoms: _316  and  _319
REMARK  127  A    between atoms: _322  and  _324
REMARK  128  A    between atoms: _324  and  _325
REMARK  129  A    between atoms: _324  and  _327
REMARK  130  A    between atoms: _327  and  _328
REMARK  131  A    between atoms: _331  and  _333
REMARK  132  A    between atoms: _333  and  _334
REMARK  133  A    between atoms: _333  and  _336
REMARK  134  A    between atoms: _336  and  _337
REMARK  135  A    between atoms: _342  and  _344
REMARK  136  A    between atoms: _344  and  _345
REMARK  137  A    between atoms: _344  and  _347
REMARK  138  A    between atoms: _347  and  _348
REMARK  139  A    between atoms: _351  and  _353
REMARK  140  A    between atoms: _353  and  _354
REMARK  141  A    between atoms: _357  and  _359
REMARK  142  A    between atoms: _359  and  _360
REMARK  143  A    between atoms: _363  and  _365
REMARK  144  A    between atoms: _365  and  _366
REMARK  145  A    between atoms: _365  and  _368
REMARK  146  A    between atoms: _368  and  _369
REMARK  147  A    between atoms: _372  and  _374
REMARK  148  A    between atoms: _374  and  _375
REMARK  149  A    between atoms: _374  and  _377
REMARK  150  A    between atoms: _377  and  _378
REMARK  151  A    between atoms: _380  and  _382
REMARK  152  A    between atoms: _382  and  _383
REMARK  153  A    between atoms: _382  and  _385
REMARK  154  A    between atoms: _385  and  _386
REMARK  155  A    between atoms: _391  and  _393
REMARK  156  A    between atoms: _393  and  _394
REMARK  157  A    between atoms: _397  and  _399
REMARK  158  A    between atoms: _399  and  _400
REMARK  159  A    between atoms: _399  and  _402
REMARK  160  A    between atoms: _402  and  _403
REMARK  161  A    between atoms: _403  and  _404
REMARK  162  A    between atoms: _407  and  _409
REMARK  163  A    between atoms: _409  and  _410
REMARK  164  A    between atoms: _409  and  _412
REMARK  165  A    between atoms: _415  and  _417
REMARK  166  A    between atoms: _417  and  _418
REMARK  167  A    between atoms: _417  and  _420
REMARK  168  A    between atoms: _420  and  _421
REMARK  169  A    between atoms: _424  and  _426
REMARK  170  A    between atoms: _426  and  _427
REMARK  171  A    between atoms: _429  and  _431
REMARK  172  A    between atoms: _431  and  _432
REMARK  173  A    between atoms: _431  and  _434
REMARK  174  A    between atoms: _434  and  _435
REMARK  175  A    between atoms: _435  and  _436
REMARK  176  A    between atoms: _439  and  _441
REMARK  177  A    between atoms: _441  and  _442
REMARK  178  A    between atoms: _441  and  _444
REMARK  179  A    between atoms: _444  and  _445
REMARK  180  A    between atoms: _451  and  _453
REMARK  181  A    between atoms: _453  and  _454
REMARK  182  A    between atoms: _453  and  _456
REMARK                            x       y       z     vdW  Elec       q    Type
REMARK                         _______ _______ _______ _____ _____    ______ ____
ROOT
ATOM      1  O   HOH     1      51.490  17.855  35.834  0.00  0.00    +0.000 OA
ENDROOT
TORSDOF 0
REMARK  Name = ../refined-set-2016/1g2o/1g2o_pocket.pdb
REMARK  182 active torsions:
REMARK  status: ('A' for Active; 'I' for Inactive)
REMARK    1  A    between atoms: _1  and  _3
REMARK    2  A    between atoms: _3  and  _4
REMARK    3  A    between atoms: _6  and  _8
REMARK    4  A    between atoms: _8  and  _9
REMARK    5  A    between atoms: _8  and  _11
REMARK    6  A    between atoms: _11  and  _12
REMARK    7  A    between atoms: _14  and  _16
REMARK    8  A    between atoms: _16  and  _17
REMARK    9  A    between atoms: _19  and  _21
REMARK   10  A    between atoms: _21  and  _22
REMARK   11  A    between atoms: _25  and  _27
REMARK   12  A    between atoms: _27  and  _28
REMARK   13  A    between atoms: _31  and  _33
REMARK   14  A    between atoms: _33  and  _34
REMARK   15  A    between atoms: _33  and  _36
REMARK   16  A    between atoms: _36  and  _37
REMARK   17  A    between atoms: _42  and  _44
REMARK   18  A    between atoms: _44  and  _45
REMARK   19  A    between atoms: _44  and  _47
REMARK   20  A    between atoms: _47  and  _48
REMARK   21  A    between atoms: _48  and  _49
REMARK   22  A    between atoms: _49  and  _50
REMARK   23  A    between atoms: _59  and  _61
REMARK   24  A    between atoms: _61  and  _62
REMARK   25  A    between atoms: _61  and  _64
REMARK   26  A    between atoms: _64  and  _65
REMARK   27  A    between atoms: _68  and  _70
REMARK   28  A    between atoms: _70  and  _71
REMARK   29  A    between atoms: _70  and  _73
REMARK   30  A    between atoms: _73  and  _74
REMARK   31  A    between atoms: _79  and  _81
REMARK   32  A    between atoms: _81  and  _82
REMARK   33  A    between atoms: _85  and  _87
REMARK   34  A    between atoms: _87  and  _88
REMARK   35  A    between atoms: _87  and  _90
REMARK   36  A    between atoms: _90  and  _91
REMARK   37  A    between atoms: _96  and  _97
REMARK   38  A    between atoms: _99  and  _101
REMARK   39  A    between atoms: _101  and  _102
REMARK   40  A    between atoms: _101  and  _104
REMARK   41  A    between atoms: _104  and  _105
REMARK   42  A    between atoms: _105  and  _106
REMARK   43  A    between atoms: _109  and  _111
REMARK   44  A    between atoms: _111  and  _112
REMARK   45  A    between atoms: _111  and  _114
REMARK   46  A    between atoms: _114  and  _115
REMARK   47  A    between atoms: _120  and  _122
REMARK   48  A    between atoms: _122  and  _123
REMARK   49  A    between atoms: _126  and  _128
REMARK   50  A    between atoms: _128  and  _129
REMARK   51  A    between atoms: _132  and  _134
REMARK   52  A    between atoms: _134  and  _135
REMARK   53  A    between atoms: _137  and  _139
REMARK   54  A    between atoms: _139  and  _140
REMARK   55  A    between atoms: _142  and  _144
REMARK   56  A    between atoms: _144  and  _145
REMARK   57  A    between atoms: _144  and  _147
REMARK   58  A    between atoms: _147  and  _148
REMARK   59  A    between atoms: _151  and  _153
REMARK   60  A    between atoms: _153  and  _154
REMARK   61  A    between atoms: _153  and  _156
REMARK   62  A    between atoms: _156  and  _157
REMARK   63  A    between atoms: _162  and  _163
REMARK   64  A    between atoms: _165  and  _167
REMARK   65  A    between atoms: _167  and  _168
REMARK   66  A    between atoms: _171  and  _173
REMARK   67  A    between atoms: _173  and  _174
REMARK   68  A    between atoms: _176  and  _178
REMARK   69  A    between atoms: _178  and  _179
REMARK   70  A    between atoms: _178  and  _181
REMARK   71  A    between atoms: _181  and  _182
REMARK   72  A    between atoms: _186  and  _187
REMARK   73  A    between atoms: _192  and  _194
REMARK   74  A    between atoms: _194  and  _195
REMARK   75  A    between atoms: _198  and  _199
REMARK   76  A    between atoms: _204  and  _206
REMARK   77  A    between atoms: _206  and  _207
REMARK   78  A    between atoms: _206  and  _209
REMARK   79  A    between atoms: _209  and  _210
REMARK   80  A    between atoms: _215  and  _217
REMARK   81  A    between atoms: _217  and  _218
REMARK   82  A    between atoms: _217  and  _220
REMARK   83  A    between atoms: _220  and  _221
REMARK   84  A    between atoms: _226  and  _227
REMARK   85  A    between atoms: _229  and  _231
REMARK   86  A    between atoms: _231  and  _232
REMARK   87  A    between atoms: _231  and  _234
REMARK   88  A    between atoms: _234  and  _235
REMARK   89  A    between atoms: _235  and  _236
REMARK   90  A    between atoms: _239  and  _241
REMARK   91  A    between atoms: _241  and  _242
REMARK   92  A    between atoms: _241  and  _244
REMARK   93  A    between atoms: _244  and  _245
REMARK   94  A    between atoms: _248  and  _250
REMARK   95  A    between atoms: _250  and  _251
REMARK   96  A    between atoms: _250  and  _253
REMARK   97  A    between atoms: _253  and  _254
REMARK   98  A    between atoms: _257  and  _259
REMARK   99  A    between atoms: _259  and  _260
REMARK  100  A    between atoms: _259  and  _262
REMARK  101  A    between atoms: _262  and  _263
REMARK  102  A    between atoms: _266  and  _268
REMARK  103  A    between atoms: _268  and  _269
REMARK  104  A    between atoms: _268  and  _271
REMARK  105  A    between atoms: _274  and  _276
REMARK  106  A    between atoms: _276  and  _277
REMARK  107  A    between atoms: _279  and  _281
REMARK  108  A    between atoms: _281  and  _282
REMARK  109  A    between atoms: _281  and  _284
REMARK  110  A    between atoms: _284  and  _285
REMARK  111  A    between atoms: _285  and  _286
REMARK  112  A    between atoms: _288  and  _290
REMARK  113  A    between atoms: _290  and  _291
REMARK  114  A    between atoms: _290  and  _293
REMARK  115  A    between atoms: _293  and  _294
REMARK  116  A    between atoms: _296  and  _298
REMARK  117  A    between atoms: _298  and  _299
REMARK  118  A    between atoms: _298  and  _301
REMARK  119  A    between atoms: _301  and  _302
REMARK  120  A    between atoms: _305  and  _307
REMARK  121  A    between atoms: _307  and  _308
REMARK  122  A    between atoms: _307  and  _310
REMARK  123  A    between atoms: _310  and  _311
REMARK  124  A    between atoms: _314  and  _316
REMARK  125  A    between atoms: _316  and  _317
REMARK  126  A    between atoms: _316  and  _319
REMARK  127  A    between atoms: _322  and  _324
REMARK  128  A    between atoms: _324  and  _325
REMARK  129  A    between atoms: _324  and  _327
REMARK  130  A    between atoms: _327  and  _328
REMARK  131  A    between atoms: _331  and  _333
REMARK  132  A    between atoms: _333  and  _334
REMARK  133  A    between atoms: _333  and  _336
REMARK  134  A    between atoms: _336  and  _337
REMARK  135  A    between atoms: _342  and  _344
REMARK  136  A    between atoms: _344  and  _345
REMARK  137  A    between atoms: _344  and  _347
REMARK  138  A    between atoms: _347  and  _348
REMARK  139  A    between atoms: _351  and  _353
REMARK  140  A    between atoms: _353  and  _354
REMARK  141  A    between atoms: _357  and  _359
REMARK  142  A    between atoms: _359  and  _360
REMARK  143  A    between atoms: _363  and  _365
REMARK  144  A    between atoms: _365  and  _366
REMARK  145  A    between atoms: _365  and  _368
REMARK  146  A    between atoms: _368  and  _369
REMARK  147  A    between atoms: _372  and  _374
REMARK  148  A    between atoms: _374  and  _375
REMARK  149  A    between atoms: _374  and  _377
REMARK  150  A    between atoms: _377  and  _378
REMARK  151  A    between atoms: _380  and  _382
REMARK  152  A    between atoms: _382  and  _383
REMARK  153  A    between atoms: _382  and  _385
REMARK  154  A    between atoms: _385  and  _386
REMARK  155  A    between atoms: _391  and  _393
REMARK  156  A    between atoms: _393  and  _394
REMARK  157  A    between atoms: _397  and  _399
REMARK  158  A    between atoms: _399  and  _400
REMARK  159  A    between atoms: _399  and  _402
REMARK  160  A    between atoms: _402  and  _403
REMARK  161  A    between atoms: _403  and  _404
REMARK  162  A    between atoms: _407  and  _409
REMARK  163  A    between atoms: _409  and  _410
REMARK  164  A    between atoms: _409  and  _412
REMARK  165  A    between atoms: _415  and  _417
REMARK  166  A    between atoms: _417  and  _418
REMARK  167  A    between atoms: _417  and  _420
REMARK  168  A    between atoms: _420  and  _421
REMARK  169  A    between atoms: _424  and  _426
REMARK  170  A    between atoms: _426  and  _427
REMARK  171  A    between atoms: _429  and  _431
REMARK  172  A    between atoms: _431  and  _432
REMARK  173  A    between atoms: _431  and  _434
REMARK  174  A    between atoms: _434  and  _435
REMARK  175  A    between atoms: _435  and  _436
REMARK  176  A    between atoms: _439  and  _441
REMARK  177  A    between atoms: _441  and  _442
REMARK  178  A    between atoms: _441  and  _444
REMARK  179  A    between atoms: _444  and  _445
REMARK  180  A    between atoms: _451  and  _453
REMARK  181  A    between atoms: _453  and  _454
REMARK  182  A    between atoms: _453  and  _456
REMARK                            x       y       z     vdW  Elec       q    Type
REMARK                         _______ _______ _______ _____ _____    ______ ____
ROOT
ATOM      1  O   HOH     1      56.991  26.058  44.001  0.00  0.00    +0.000 OA
ENDROOT
TORSDOF 0
REMARK  Name = ../refined-set-2016/1g2o/1g2o_pocket.pdb
REMARK  182 active torsions:
REMARK  status: ('A' for Active; 'I' for Inactive)
REMARK    1  A    between atoms: _1  and  _3
REMARK    2  A    between atoms: _3  and  _4
REMARK    3  A    between atoms: _6  and  _8
REMARK    4  A    between atoms: _8  and  _9
REMARK    5  A    between atoms: _8  and  _11
REMARK    6  A    between atoms: _11  and  _12
REMARK    7  A    between atoms: _14  and  _16
REMARK    8  A    between atoms: _16  and  _17
REMARK    9  A    between atoms: _19  and  _21
REMARK   10  A    between atoms: _21  and  _22
REMARK   11  A    between atoms: _25  and  _27
REMARK   12  A    between atoms: _27  and  _28
REMARK   13  A    between atoms: _31  and  _33
REMARK   14  A    between atoms: _33  and  _34
REMARK   15  A    between atoms: _33  and  _36
REMARK   16  A    between atoms: _36  and  _37
REMARK   17  A    between atoms: _42  and  _44
REMARK   18  A    between atoms: _44  and  _45
REMARK   19  A    between atoms: _44  and  _47
REMARK   20  A    between atoms: _47  and  _48
REMARK   21  A    between atoms: _48  and  _49
REMARK   22  A    between atoms: _49  and  _50
REMARK   23  A    between atoms: _59  and  _61
REMARK   24  A    between atoms: _61  and  _62
REMARK   25  A    between atoms: _61  and  _64
REMARK   26  A    between atoms: _64  and  _65
REMARK   27  A    between atoms: _68  and  _70
REMARK   28  A    between atoms: _70  and  _71
REMARK   29  A    between atoms: _70  and  _73
REMARK   30  A    between atoms: _73  and  _74
REMARK   31  A    between atoms: _79  and  _81
REMARK   32  A    between atoms: _81  and  _82
REMARK   33  A    between atoms: _85  and  _87
REMARK   34  A    between atoms: _87  and  _88
REMARK   35  A    between atoms: _87  and  _90
REMARK   36  A    between atoms: _90  and  _91
REMARK   37  A    between atoms: _96  and  _97
REMARK   38  A    between atoms: _99  and  _101
REMARK   39  A    between atoms: _101  and  _102
REMARK   40  A    between atoms: _101  and  _104
REMARK   41  A    between atoms: _104  and  _105
REMARK   42  A    between atoms: _105  and  _106
REMARK   43  A    between atoms: _109  and  _111
REMARK   44  A    between atoms: _111  and  _112
REMARK   45  A    between atoms: _111  and  _114
REMARK   46  A    between atoms: _114  and  _115
REMARK   47  A    between atoms: _120  and  _122
REMARK   48  A    between atoms: _122  and  _123
REMARK   49  A    between atoms: _126  and  _128
REMARK   50  A    between atoms: _128  and  _129
REMARK   51  A    between atoms: _132  and  _134
REMARK   52  A    between atoms: _134  and  _135
REMARK   53  A    between atoms: _137  and  _139
REMARK   54  A    between atoms: _139  and  _140
REMARK   55  A    between atoms: _142  and  _144
REMARK   56  A    between atoms: _144  and  _145
REMARK   57  A    between atoms: _144  and  _147
REMARK   58  A    between atoms: _147  and  _148
REMARK   59  A    between atoms: _151  and  _153
REMARK   60  A    between atoms: _153  and  _154
REMARK   61  A    between atoms: _153  and  _156
REMARK   62  A    between atoms: _156  and  _157
REMARK   63  A    between atoms: _162  and  _163
REMARK   64  A    between atoms: _165  and  _167
REMARK   65  A    between atoms: _167  and  _168
REMARK   66  A    between atoms: _171  and  _173
REMARK   67  A    between atoms: _173  and  _174
REMARK   68  A    between atoms: _176  and  _178
REMARK   69  A    between atoms: _178  and  _179
REMARK   70  A    between atoms: _178  and  _181
REMARK   71  A    between atoms: _181  and  _182
REMARK   72  A    between atoms: _186  and  _187
REMARK   73  A    between atoms: _192  and  _194
REMARK   74  A    between atoms: _194  and  _195
REMARK   75  A    between atoms: _198  and  _199
REMARK   76  A    between atoms: _204  and  _206
REMARK   77  A    between atoms: _206  and  _207
REMARK   78  A    between atoms: _206  and  _209
REMARK   79  A    between atoms: _209  and  _210
REMARK   80  A    between atoms: _215  and  _217
REMARK   81  A    between atoms: _217  and  _218
REMARK   82  A    between atoms: _217  and  _220
REMARK   83  A    between atoms: _220  and  _221
REMARK   84  A    between atoms: _226  and  _227
REMARK   85  A    between atoms: _229  and  _231
REMARK   86  A    between atoms: _231  and  _232
REMARK   87  A    between atoms: _231  and  _234
REMARK   88  A    between atoms: _234  and  _235
REMARK   89  A    between atoms: _235  and  _236
REMARK   90  A    between atoms: _239  and  _241
REMARK   91  A    between atoms: _241  and  _242
REMARK   92  A    between atoms: _241  and  _244
REMARK   93  A    between atoms: _244  and  _245
REMARK   94  A    between atoms: _248  and  _250
REMARK   95  A    between atoms: _250  and  _251
REMARK   96  A    between atoms: _250  and  _253
REMARK   97  A    between atoms: _253  and  _254
REMARK   98  A    between atoms: _257  and  _259
REMARK   99  A    between atoms: _259  and  _260
REMARK  100  A    between atoms: _259  and  _262
REMARK  101  A    between atoms: _262  and  _263
REMARK  102  A    between atoms: _266  and  _268
REMARK  103  A    between atoms: _268  and  _269
REMARK  104  A    between atoms: _268  and  _271
REMARK  105  A    between atoms: _274  and  _276
REMARK  106  A    between atoms: _276  and  _277
REMARK  107  A    between atoms: _279  and  _281
REMARK  108  A    between atoms: _281  and  _282
REMARK  109  A    between atoms: _281  and  _284
REMARK  110  A    between atoms: _284  and  _285
REMARK  111  A    between atoms: _285  and  _286
REMARK  112  A    between atoms: _288  and  _290
REMARK  113  A    between atoms: _290  and  _291
REMARK  114  A    between atoms: _290  and  _293
REMARK  115  A    between atoms: _293  and  _294
REMARK  116  A    between atoms: _296  and  _298
REMARK  117  A    between atoms: _298  and  _299
REMARK  118  A    between atoms: _298  and  _301
REMARK  119  A    between atoms: _301  and  _302
REMARK  120  A    between atoms: _305  and  _307
REMARK  121  A    between atoms: _307  and  _308
REMARK  122  A    between atoms: _307  and  _310
REMARK  123  A    between atoms: _310  and  _311
REMARK  124  A    between atoms: _314  and  _316
REMARK  125  A    between atoms: _316  and  _317
REMARK  126  A    between atoms: _316  and  _319
REMARK  127  A    between atoms: _322  and  _324
REMARK  128  A    between atoms: _324  and  _325
REMARK  129  A    between atoms: _324  and  _327
REMARK  130  A    between atoms: _327  and  _328
REMARK  131  A    between atoms: _331  and  _333
REMARK  132  A    between atoms: _333  and  _334
REMARK  133  A    between atoms: _333  and  _336
REMARK  134  A    between atoms: _336  and  _337
REMARK  135  A    between atoms: _342  and  _344
REMARK  136  A    between atoms: _344  and  _345
REMARK  137  A    between atoms: _344  and  _347
REMARK  138  A    between atoms: _347  and  _348
REMARK  139  A    between atoms: _351  and  _353
REMARK  140  A    between atoms: _353  and  _354
REMARK  141  A    between atoms: _357  and  _359
REMARK  142  A    between atoms: _359  and  _360
REMARK  143  A    between atoms: _363  and  _365
REMARK  144  A    between atoms: _365  and  _366
REMARK  145  A    between atoms: _365  and  _368
REMARK  146  A    between atoms: _368  and  _369
REMARK  147  A    between atoms: _372  and  _374
REMARK  148  A    between atoms: _374  and  _375
REMARK  149  A    between atoms: _374  and  _377
REMARK  150  A    between atoms: _377  and  _378
REMARK  151  A    between atoms: _380  and  _382
REMARK  152  A    between atoms: _382  and  _383
REMARK  153  A    between atoms: _382  and  _385
REMARK  154  A    between atoms: _385  and  _386
REMARK  155  A    between atoms: _391  and  _393
REMARK  156  A    between atoms: _393  and  _394
REMARK  157  A    between atoms: _397  and  _399
REMARK  158  A    between atoms: _399  and  _400
REMARK  159  A    between atoms: _399  and  _402
REMARK  160  A    between atoms: _402  and  _403
REMARK  161  A    between atoms: _403  and  _404
REMARK  162  A    between atoms: _407  and  _409
REMARK  163  A    between atoms: _409  and  _410
REMARK  164  A    between atoms: _409  and  _412
REMARK  165  A    between atoms: _415  and  _417
REMARK  166  A    between atoms: _417  and  _418
REMARK  167  A    between atoms: _417  and  _420
REMARK  168  A    between atoms: _420  and  _421
REMARK  169  A    between atoms: _424  and  _426
REMARK  170  A    between atoms: _426  and  _427
REMARK  171  A    between atoms: _429  and  _431
REMARK  172  A    between atoms: _431  and  _432
REMARK  173  A    between atoms: _431  and  _434
REMARK  174  A    between atoms: _434  and  _435
REMARK  175  A    between atoms: _435  and  _436
REMARK  176  A    between atoms: _439  and  _441
REMARK  177  A    between atoms: _441  and  _442
REMARK  178  A    between atoms: _441  and  _444
REMARK  179  A    between atoms: _444  and  _445
REMARK  180  A    between atoms: _451  and  _453
REMARK  181  A    between atoms: _453  and  _454
REMARK  182  A    between atoms: _453  and  _456
REMARK                            x       y       z     vdW  Elec       q    Type
REMARK                         _______ _______ _______ _____ _____    ______ ____
ROOT
ATOM      1  O   HOH     1      54.682  11.788  50.921  0.00  0.00    +0.000 OA
ENDROOT
TORSDOF 0
REMARK  Name = ../refined-set-2016/1g2o/1g2o_pocket.pdb
REMARK  182 active torsions:
REMARK  status: ('A' for Active; 'I' for Inactive)
REMARK    1  A    between atoms: _1  and  _3
REMARK    2  A    between atoms: _3  and  _4
REMARK    3  A    between atoms: _6  and  _8
REMARK    4  A    between atoms: _8  and  _9
REMARK    5  A    between atoms: _8  and  _11
REMARK    6  A    between atoms: _11  and  _12
REMARK    7  A    between atoms: _14  and  _16
REMARK    8  A    between atoms: _16  and  _17
REMARK    9  A    between atoms: _19  and  _21
REMARK   10  A    between atoms: _21  and  _22
REMARK   11  A    between atoms: _25  and  _27
REMARK   12  A    between atoms: _27  and  _28
REMARK   13  A    between atoms: _31  and  _33
REMARK   14  A    between atoms: _33  and  _34
REMARK   15  A    between atoms: _33  and  _36
REMARK   16  A    between atoms: _36  and  _37
REMARK   17  A    between atoms: _42  and  _44
REMARK   18  A    between atoms: _44  and  _45
REMARK   19  A    between atoms: _44  and  _47
REMARK   20  A    between atoms: _47  and  _48
REMARK   21  A    between atoms: _48  and  _49
REMARK   22  A    between atoms: _49  and  _50
REMARK   23  A    between atoms: _59  and  _61
REMARK   24  A    between atoms: _61  and  _62
REMARK   25  A    between atoms: _61  and  _64
REMARK   26  A    between atoms: _64  and  _65
REMARK   27  A    between atoms: _68  and  _70
REMARK   28  A    between atoms: _70  and  _71
REMARK   29  A    between atoms: _70  and  _73
REMARK   30  A    between atoms: _73  and  _74
REMARK   31  A    between atoms: _79  and  _81
REMARK   32  A    between atoms: _81  and  _82
REMARK   33  A    between atoms: _85  and  _87
REMARK   34  A    between atoms: _87  and  _88
REMARK   35  A    between atoms: _87  and  _90
REMARK   36  A    between atoms: _90  and  _91
REMARK   37  A    between atoms: _96  and  _97
REMARK   38  A    between atoms: _99  and  _101
REMARK   39  A    between atoms: _101  and  _102
REMARK   40  A    between atoms: _101  and  _104
REMARK   41  A    between atoms: _104  and  _105
REMARK   42  A    between atoms: _105  and  _106
REMARK   43  A    between atoms: _109  and  _111
REMARK   44  A    between atoms: _111  and  _112
REMARK   45  A    between atoms: _111  and  _114
REMARK   46  A    between atoms: _114  and  _115
REMARK   47  A    between atoms: _120  and  _122
REMARK   48  A    between atoms: _122  and  _123
REMARK   49  A    between atoms: _126  and  _128
REMARK   50  A    between atoms: _128  and  _129
REMARK   51  A    between atoms: _132  and  _134
REMARK   52  A    between atoms: _134  and  _135
REMARK   53  A    between atoms: _137  and  _139
REMARK   54  A    between atoms: _139  and  _140
REMARK   55  A    between atoms: _142  and  _144
REMARK   56  A    between atoms: _144  and  _145
REMARK   57  A    between atoms: _144  and  _147
REMARK   58  A    between atoms: _147  and  _148
REMARK   59  A    between atoms: _151  and  _153
REMARK   60  A    between atoms: _153  and  _154
REMARK   61  A    between atoms: _153  and  _156
REMARK   62  A    between atoms: _156  and  _157
REMARK   63  A    between atoms: _162  and  _163
REMARK   64  A    between atoms: _165  and  _167
REMARK   65  A    between atoms: _167  and  _168
REMARK   66  A    between atoms: _171  and  _173
REMARK   67  A    between atoms: _173  and  _174
REMARK   68  A    between atoms: _176  and  _178
REMARK   69  A    between atoms: _178  and  _179
REMARK   70  A    between atoms: _178  and  _181
REMARK   71  A    between atoms: _181  and  _182
REMARK   72  A    between atoms: _186  and  _187
REMARK   73  A    between atoms: _192  and  _194
REMARK   74  A    between atoms: _194  and  _195
REMARK   75  A    between atoms: _198  and  _199
REMARK   76  A    between atoms: _204  and  _206
REMARK   77  A    between atoms: _206  and  _207
REMARK   78  A    between atoms: _206  and  _209
REMARK   79  A    between atoms: _209  and  _210
REMARK   80  A    between atoms: _215  and  _217
REMARK   81  A    between atoms: _217  and  _218
REMARK   82  A    between atoms: _217  and  _220
REMARK   83  A    between atoms: _220  and  _221
REMARK   84  A    between atoms: _226  and  _227
REMARK   85  A    between atoms: _229  and  _231
REMARK   86  A    between atoms: _231  and  _232
REMARK   87  A    between atoms: _231  and  _234
REMARK   88  A    between atoms: _234  and  _235
REMARK   89  A    between atoms: _235  and  _236
REMARK   90  A    between atoms: _239  and  _241
REMARK   91  A    between atoms: _241  and  _242
REMARK   92  A    between atoms: _241  and  _244
REMARK   93  A    between atoms: _244  and  _245
REMARK   94  A    between atoms: _248  and  _250
REMARK   95  A    between atoms: _250  and  _251
REMARK   96  A    between atoms: _250  and  _253
REMARK   97  A    between atoms: _253  and  _254
REMARK   98  A    between atoms: _257  and  _259
REMARK   99  A    between atoms: _259  and  _260
REMARK  100  A    between atoms: _259  and  _262
REMARK  101  A    between atoms: _262  and  _263
REMARK  102  A    between atoms: _266  and  _268
REMARK  103  A    between atoms: _268  and  _269
REMARK  104  A    between atoms: _268  and  _271
REMARK  105  A    between atoms: _274  and  _276
REMARK  106  A    between atoms: _276  and  _277
REMARK  107  A    between atoms: _279  and  _281
REMARK  108  A    between atoms: _281  and  _282
REMARK  109  A    between atoms: _281  and  _284
REMARK  110  A    between atoms: _284  and  _285
REMARK  111  A    between atoms: _285  and  _286
REMARK  112  A    between atoms: _288  and  _290
REMARK  113  A    between atoms: _290  and  _291
REMARK  114  A    between atoms: _290  and  _293
REMARK  115  A    between atoms: _293  and  _294
REMARK  116  A    between atoms: _296  and  _298
REMARK  117  A    between atoms: _298  and  _299
REMARK  118  A    between atoms: _298  and  _301
REMARK  119  A    between atoms: _301  and  _302
REMARK  120  A    between atoms: _305  and  _307
REMARK  121  A    between atoms: _307  and  _308
REMARK  122  A    between atoms: _307  and  _310
REMARK  123  A    between atoms: _310  and  _311
REMARK  124  A    between atoms: _314  and  _316
REMARK  125  A    between atoms: _316  and  _317
REMARK  126  A    between atoms: _316  and  _319
REMARK  127  A    between atoms: _322  and  _324
REMARK  128  A    between atoms: _324  and  _325
REMARK  129  A    between atoms: _324  and  _327
REMARK  130  A    between atoms: _327  and  _328
REMARK  131  A    between atoms: _331  and  _333
REMARK  132  A    between atoms: _333  and  _334
REMARK  133  A    between atoms: _333  and  _336
REMARK  134  A    between atoms: _336  and  _337
REMARK  135  A    between atoms: _342  and  _344
REMARK  136  A    between atoms: _344  and  _345
REMARK  137  A    between atoms: _344  and  _347
REMARK  138  A    between atoms: _347  and  _348
REMARK  139  A    between atoms: _351  and  _353
REMARK  140  A    between atoms: _353  and  _354
REMARK  141  A    between atoms: _357  and  _359
REMARK  142  A    between atoms: _359  and  _360
REMARK  143  A    between atoms: _363  and  _365
REMARK  144  A    between atoms: _365  and  _366
REMARK  145  A    between atoms: _365  and  _368
REMARK  146  A    between atoms: _368  and  _369
REMARK  147  A    between atoms: _372  and  _374
REMARK  148  A    between atoms: _374  and  _375
REMARK  149  A    between atoms: _374  and  _377
REMARK  150  A    between atoms: _377  and  _378
REMARK  151  A    between atoms: _380  and  _382
REMARK  152  A    between atoms: _382  and  _383
REMARK  153  A    between atoms: _382  and  _385
REMARK  154  A    between atoms: _385  and  _386
REMARK  155  A    between atoms: _391  and  _393
REMARK  156  A    between atoms: _393  and  _394
REMARK  157  A    between atoms: _397  and  _399
REMARK  158  A    between atoms: _399  and  _400
REMARK  159  A    between atoms: _399  and  _402
REMARK  160  A    between atoms: _402  and  _403
REMARK  161  A    between atoms: _403  and  _404
REMARK  162  A    between atoms: _407  and  _409
REMARK  163  A    between atoms: _409  and  _410
REMARK  164  A    between atoms: _409  and  _412
REMARK  165  A    between atoms: _415  and  _417
REMARK  166  A    between atoms: _417  and  _418
REMARK  167  A    between atoms: _417  and  _420
REMARK  168  A    between atoms: _420  and  _421
REMARK  169  A    between atoms: _424  and  _426
REMARK  170  A    between atoms: _426  and  _427
REMARK  171  A    between atoms: _429  and  _431
REMARK  172  A    between atoms: _431  and  _432
REMARK  173  A    between atoms: _431  and  _434
REMARK  174  A    between atoms: _434  and  _435
REMARK  175  A    between atoms: _435  and  _436
REMARK  176  A    between atoms: _439  and  _441
REMARK  177  A    between atoms: _441  and  _442
REMARK  178  A    between atoms: _441  and  _444
REMARK  179  A    between atoms: _444  and  _445
REMARK  180  A    between atoms: _451  and  _453
REMARK  181  A    between atoms: _453  and  _454
REMARK  182  A    between atoms: _453  and  _456
REMARK                            x       y       z     vdW  Elec       q    Type
REMARK                         _______ _______ _______ _____ _____    ______ ____
ROOT
ATOM      1  O   HOH     1      58.488  25.170  48.497  0.00  0.00    +0.000 OA
ENDROOT
TORSDOF 0
REMARK  Name = ../refined-set-2016/1g2o/1g2o_pocket.pdb
REMARK  182 active torsions:
REMARK  status: ('A' for Active; 'I' for Inactive)
REMARK    1  A    between atoms: _1  and  _3
REMARK    2  A    between atoms: _3  and  _4
REMARK    3  A    between atoms: _6  and  _8
REMARK    4  A    between atoms: _8  and  _9
REMARK    5  A    between atoms: _8  and  _11
REMARK    6  A    between atoms: _11  and  _12
REMARK    7  A    between atoms: _14  and  _16
REMARK    8  A    between atoms: _16  and  _17
REMARK    9  A    between atoms: _19  and  _21
REMARK   10  A    between atoms: _21  and  _22
REMARK   11  A    between atoms: _25  and  _27
REMARK   12  A    between atoms: _27  and  _28
REMARK   13  A    between atoms: _31  and  _33
REMARK   14  A    between atoms: _33  and  _34
REMARK   15  A    between atoms: _33  and  _36
REMARK   16  A    between atoms: _36  and  _37
REMARK   17  A    between atoms: _42  and  _44
REMARK   18  A    between atoms: _44  and  _45
REMARK   19  A    between atoms: _44  and  _47
REMARK   20  A    between atoms: _47  and  _48
REMARK   21  A    between atoms: _48  and  _49
REMARK   22  A    between atoms: _49  and  _50
REMARK   23  A    between atoms: _59  and  _61
REMARK   24  A    between atoms: _61  and  _62
REMARK   25  A    between atoms: _61  and  _64
REMARK   26  A    between atoms: _64  and  _65
REMARK   27  A    between atoms: _68  and  _70
REMARK   28  A    between atoms: _70  and  _71
REMARK   29  A    between atoms: _70  and  _73
REMARK   30  A    between atoms: _73  and  _74
REMARK   31  A    between atoms: _79  and  _81
REMARK   32  A    between atoms: _81  and  _82
REMARK   33  A    between atoms: _85  and  _87
REMARK   34  A    between atoms: _87  and  _88
REMARK   35  A    between atoms: _87  and  _90
REMARK   36  A    between atoms: _90  and  _91
REMARK   37  A    between atoms: _96  and  _97
REMARK   38  A    between atoms: _99  and  _101
REMARK   39  A    between atoms: _101  and  _102
REMARK   40  A    between atoms: _101  and  _104
REMARK   41  A    between atoms: _104  and  _105
REMARK   42  A    between atoms: _105  and  _106
REMARK   43  A    between atoms: _109  and  _111
REMARK   44  A    between atoms: _111  and  _112
REMARK   45  A    between atoms: _111  and  _114
REMARK   46  A    between atoms: _114  and  _115
REMARK   47  A    between atoms: _120  and  _122
REMARK   48  A    between atoms: _122  and  _123
REMARK   49  A    between atoms: _126  and  _128
REMARK   50  A    between atoms: _128  and  _129
REMARK   51  A    between atoms: _132  and  _134
REMARK   52  A    between atoms: _134  and  _135
REMARK   53  A    between atoms: _137  and  _139
REMARK   54  A    between atoms: _139  and  _140
REMARK   55  A    between atoms: _142  and  _144
REMARK   56  A    between atoms: _144  and  _145
REMARK   57  A    between atoms: _144  and  _147
REMARK   58  A    between atoms: _147  and  _148
REMARK   59  A    between atoms: _151  and  _153
REMARK   60  A    between atoms: _153  and  _154
REMARK   61  A    between atoms: _153  and  _156
REMARK   62  A    between atoms: _156  and  _157
REMARK   63  A    between atoms: _162  and  _163
REMARK   64  A    between atoms: _165  and  _167
REMARK   65  A    between atoms: _167  and  _168
REMARK   66  A    between atoms: _171  and  _173
REMARK   67  A    between atoms: _173  and  _174
REMARK   68  A    between atoms: _176  and  _178
REMARK   69  A    between atoms: _178  and  _179
REMARK   70  A    between atoms: _178  and  _181
REMARK   71  A    between atoms: _181  and  _182
REMARK   72  A    between atoms: _186  and  _187
REMARK   73  A    between atoms: _192  and  _194
REMARK   74  A    between atoms: _194  and  _195
REMARK   75  A    between atoms: _198  and  _199
REMARK   76  A    between atoms: _204  and  _206
REMARK   77  A    between atoms: _206  and  _207
REMARK   78  A    between atoms: _206  and  _209
REMARK   79  A    between atoms: _209  and  _210
REMARK   80  A    between atoms: _215  and  _217
REMARK   81  A    between atoms: _217  and  _218
REMARK   82  A    between atoms: _217  and  _220
REMARK   83  A    between atoms: _220  and  _221
REMARK   84  A    between atoms: _226  and  _227
REMARK   85  A    between atoms: _229  and  _231
REMARK   86  A    between atoms: _231  and  _232
REMARK   87  A    between atoms: _231  and  _234
REMARK   88  A    between atoms: _234  and  _235
REMARK   89  A    between atoms: _235  and  _236
REMARK   90  A    between atoms: _239  and  _241
REMARK   91  A    between atoms: _241  and  _242
REMARK   92  A    between atoms: _241  and  _244
REMARK   93  A    between atoms: _244  and  _245
REMARK   94  A    between atoms: _248  and  _250
REMARK   95  A    between atoms: _250  and  _251
REMARK   96  A    between atoms: _250  and  _253
REMARK   97  A    between atoms: _253  and  _254
REMARK   98  A    between atoms: _257  and  _259
REMARK   99  A    between atoms: _259  and  _260
REMARK  100  A    between atoms: _259  and  _262
REMARK  101  A    between atoms: _262  and  _263
REMARK  102  A    between atoms: _266  and  _268
REMARK  103  A    between atoms: _268  and  _269
REMARK  104  A    between atoms: _268  and  _271
REMARK  105  A    between atoms: _274  and  _276
REMARK  106  A    between atoms: _276  and  _277
REMARK  107  A    between atoms: _279  and  _281
REMARK  108  A    between atoms: _281  and  _282
REMARK  109  A    between atoms: _281  and  _284
REMARK  110  A    between atoms: _284  and  _285
REMARK  111  A    between atoms: _285  and  _286
REMARK  112  A    between atoms: _288  and  _290
REMARK  113  A    between atoms: _290  and  _291
REMARK  114  A    between atoms: _290  and  _293
REMARK  115  A    between atoms: _293  and  _294
REMARK  116  A    between atoms: _296  and  _298
REMARK  117  A    between atoms: _298  and  _299
REMARK  118  A    between atoms: _298  and  _301
REMARK  119  A    between atoms: _301  and  _302
REMARK  120  A    between atoms: _305  and  _307
REMARK  121  A    between atoms: _307  and  _308
REMARK  122  A    between atoms: _307  and  _310
REMARK  123  A    between atoms: _310  and  _311
REMARK  124  A    between atoms: _314  and  _316
REMARK  125  A    between atoms: _316  and  _317
REMARK  126  A    between atoms: _316  and  _319
REMARK  127  A    between atoms: _322  and  _324
REMARK  128  A    between atoms: _324  and  _325
REMARK  129  A    between atoms: _324  and  _327
REMARK  130  A    between atoms: _327  and  _328
REMARK  131  A    between atoms: _331  and  _333
REMARK  132  A    between atoms: _333  and  _334
REMARK  133  A    between atoms: _333  and  _336
REMARK  134  A    between atoms: _336  and  _337
REMARK  135  A    between atoms: _342  and  _344
REMARK  136  A    between atoms: _344  and  _345
REMARK  137  A    between atoms: _344  and  _347
REMARK  138  A    between atoms: _347  and  _348
REMARK  139  A    between atoms: _351  and  _353
REMARK  140  A    between atoms: _353  and  _354
REMARK  141  A    between atoms: _357  and  _359
REMARK  142  A    between atoms: _359  and  _360
REMARK  143  A    between atoms: _363  and  _365
REMARK  144  A    between atoms: _365  and  _366
REMARK  145  A    between atoms: _365  and  _368
REMARK  146  A    between atoms: _368  and  _369
REMARK  147  A    between atoms: _372  and  _374
REMARK  148  A    between atoms: _374  and  _375
REMARK  149  A    between atoms: _374  and  _377
REMARK  150  A    between atoms: _377  and  _378
REMARK  151  A    between atoms: _380  and  _382
REMARK  152  A    between atoms: _382  and  _383
REMARK  153  A    between atoms: _382  and  _385
REMARK  154  A    between atoms: _385  and  _386
REMARK  155  A    between atoms: _391  and  _393
REMARK  156  A    between atoms: _393  and  _394
REMARK  157  A    between atoms: _397  and  _399
REMARK  158  A    between atoms: _399  and  _400
REMARK  159  A    between atoms: _399  and  _402
REMARK  160  A    between atoms: _402  and  _403
REMARK  161  A    between atoms: _403  and  _404
REMARK  162  A    between atoms: _407  and  _409
REMARK  163  A    between atoms: _409  and  _410
REMARK  164  A    between atoms: _409  and  _412
REMARK  165  A    between atoms: _415  and  _417
REMARK  166  A    between atoms: _417  and  _418
REMARK  167  A    between atoms: _417  and  _420
REMARK  168  A    between atoms: _420  and  _421
REMARK  169  A    between atoms: _424  and  _426
REMARK  170  A    between atoms: _426  and  _427
REMARK  171  A    between atoms: _429  and  _431
REMARK  172  A    between atoms: _431  and  _432
REMARK  173  A    between atoms: _431  and  _434
REMARK  174  A    between atoms: _434  and  _435
REMARK  175  A    between atoms: _435  and  _436
REMARK  176  A    between atoms: _439  and  _441
REMARK  177  A    between atoms: _441  and  _442
REMARK  178  A    between atoms: _441  and  _444
REMARK  179  A    between atoms: _444  and  _445
REMARK  180  A    between atoms: _451  and  _453
REMARK  181  A    between atoms: _453  and  _454
REMARK  182  A    between atoms: _453  and  _456
REMARK                            x       y       z     vdW  Elec       q    Type
REMARK                         _______ _______ _______ _____ _____    ______ ____
ROOT
ATOM      1  O   HOH     1      53.052  10.089  38.102  0.00  0.00    +0.000 OA
ENDROOT
TORSDOF 0
REMARK  Name = ../refined-set-2016/1g2o/1g2o_pocket.pdb
REMARK  182 active torsions:
REMARK  status: ('A' for Active; 'I' for Inactive)
REMARK    1  A    between atoms: _1  and  _3
REMARK    2  A    between atoms: _3  and  _4
REMARK    3  A    between atoms: _6  and  _8
REMARK    4  A    between atoms: _8  and  _9
REMARK    5  A    between atoms: _8  and  _11
REMARK    6  A    between atoms: _11  and  _12
REMARK    7  A    between atoms: _14  and  _16
REMARK    8  A    between atoms: _16  and  _17
REMARK    9  A    between atoms: _19  and  _21
REMARK   10  A    between atoms: _21  and  _22
REMARK   11  A    between atoms: _25  and  _27
REMARK   12  A    between atoms: _27  and  _28
REMARK   13  A    between atoms: _31  and  _33
REMARK   14  A    between atoms: _33  and  _34
REMARK   15  A    between atoms: _33  and  _36
REMARK   16  A    between atoms: _36  and  _37
REMARK   17  A    between atoms: _42  and  _44
REMARK   18  A    between atoms: _44  and  _45
REMARK   19  A    between atoms: _44  and  _47
REMARK   20  A    between atoms: _47  and  _48
REMARK   21  A    between atoms: _48  and  _49
REMARK   22  A    between atoms: _49  and  _50
REMARK   23  A    between atoms: _59  and  _61
REMARK   24  A    between atoms: _61  and  _62
REMARK   25  A    between atoms: _61  and  _64
REMARK   26  A    between atoms: _64  and  _65
REMARK   27  A    between atoms: _68  and  _70
REMARK   28  A    between atoms: _70  and  _71
REMARK   29  A    between atoms: _70  and  _73
REMARK   30  A    between atoms: _73  and  _74
REMARK   31  A    between atoms: _79  and  _81
REMARK   32  A    between atoms: _81  and  _82
REMARK   33  A    between atoms: _85  and  _87
REMARK   34  A    between atoms: _87  and  _88
REMARK   35  A    between atoms: _87  and  _90
REMARK   36  A    between atoms: _90  and  _91
REMARK   37  A    between atoms: _96  and  _97
REMARK   38  A    between atoms: _99  and  _101
REMARK   39  A    between atoms: _101  and  _102
REMARK   40  A    between atoms: _101  and  _104
REMARK   41  A    between atoms: _104  and  _105
REMARK   42  A    between atoms: _105  and  _106
REMARK   43  A    between atoms: _109  and  _111
REMARK   44  A    between atoms: _111  and  _112
REMARK   45  A    between atoms: _111  and  _114
REMARK   46  A    between atoms: _114  and  _115
REMARK   47  A    between atoms: _120  and  _122
REMARK   48  A    between atoms: _122  and  _123
REMARK   49  A    between atoms: _126  and  _128
REMARK   50  A    between atoms: _128  and  _129
REMARK   51  A    between atoms: _132  and  _134
REMARK   52  A    between atoms: _134  and  _135
REMARK   53  A    between atoms: _137  and  _139
REMARK   54  A    between atoms: _139  and  _140
REMARK   55  A    between atoms: _142  and  _144
REMARK   56  A    between atoms: _144  and  _145
REMARK   57  A    between atoms: _144  and  _147
REMARK   58  A    between atoms: _147  and  _148
REMARK   59  A    between atoms: _151  and  _153
REMARK   60  A    between atoms: _153  and  _154
REMARK   61  A    between atoms: _153  and  _156
REMARK   62  A    between atoms: _156  and  _157
REMARK   63  A    between atoms: _162  and  _163
REMARK   64  A    between atoms: _165  and  _167
REMARK   65  A    between atoms: _167  and  _168
REMARK   66  A    between atoms: _171  and  _173
REMARK   67  A    between atoms: _173  and  _174
REMARK   68  A    between atoms: _176  and  _178
REMARK   69  A    between atoms: _178  and  _179
REMARK   70  A    between atoms: _178  and  _181
REMARK   71  A    between atoms: _181  and  _182
REMARK   72  A    between atoms: _186  and  _187
REMARK   73  A    between atoms: _192  and  _194
REMARK   74  A    between atoms: _194  and  _195
REMARK   75  A    between atoms: _198  and  _199
REMARK   76  A    between atoms: _204  and  _206
REMARK   77  A    between atoms: _206  and  _207
REMARK   78  A    between atoms: _206  and  _209
REMARK   79  A    between atoms: _209  and  _210
REMARK   80  A    between atoms: _215  and  _217
REMARK   81  A    between atoms: _217  and  _218
REMARK   82  A    between atoms: _217  and  _220
REMARK   83  A    between atoms: _220  and  _221
REMARK   84  A    between atoms: _226  and  _227
REMARK   85  A    between atoms: _229  and  _231
REMARK   86  A    between atoms: _231  and  _232
REMARK   87  A    between atoms: _231  and  _234
REMARK   88  A    between atoms: _234  and  _235
REMARK   89  A    between atoms: _235  and  _236
REMARK   90  A    between atoms: _239  and  _241
REMARK   91  A    between atoms: _241  and  _242
REMARK   92  A    between atoms: _241  and  _244
REMARK   93  A    between atoms: _244  and  _245
REMARK   94  A    between atoms: _248  and  _250
REMARK   95  A    between atoms: _250  and  _251
REMARK   96  A    between atoms: _250  and  _253
REMARK   97  A    between atoms: _253  and  _254
REMARK   98  A    between atoms: _257  and  _259
REMARK   99  A    between atoms: _259  and  _260
REMARK  100  A    between atoms: _259  and  _262
REMARK  101  A    between atoms: _262  and  _263
REMARK  102  A    between atoms: _266  and  _268
REMARK  103  A    between atoms: _268  and  _269
REMARK  104  A    between atoms: _268  and  _271
REMARK  105  A    between atoms: _274  and  _276
REMARK  106  A    between atoms: _276  and  _277
REMARK  107  A    between atoms: _279  and  _281
REMARK  108  A    between atoms: _281  and  _282
REMARK  109  A    between atoms: _281  and  _284
REMARK  110  A    between atoms: _284  and  _285
REMARK  111  A    between atoms: _285  and  _286
REMARK  112  A    between atoms: _288  and  _290
REMARK  113  A    between atoms: _290  and  _291
REMARK  114  A    between atoms: _290  and  _293
REMARK  115  A    between atoms: _293  and  _294
REMARK  116  A    between atoms: _296  and  _298
REMARK  117  A    between atoms: _298  and  _299
REMARK  118  A    between atoms: _298  and  _301
REMARK  119  A    between atoms: _301  and  _302
REMARK  120  A    between atoms: _305  and  _307
REMARK  121  A    between atoms: _307  and  _308
REMARK  122  A    between atoms: _307  and  _310
REMARK  123  A    between atoms: _310  and  _311
REMARK  124  A    between atoms: _314  and  _316
REMARK  125  A    between atoms: _316  and  _317
REMARK  126  A    between atoms: _316  and  _319
REMARK  127  A    between atoms: _322  and  _324
REMARK  128  A    between atoms: _324  and  _325
REMARK  129  A    between atoms: _324  and  _327
REMARK  130  A    between atoms: _327  and  _328
REMARK  131  A    between atoms: _331  and  _333
REMARK  132  A    between atoms: _333  and  _334
REMARK  133  A    between atoms: _333  and  _336
REMARK  134  A    between atoms: _336  and  _337
REMARK  135  A    between atoms: _342  and  _344
REMARK  136  A    between atoms: _344  and  _345
REMARK  137  A    between atoms: _344  and  _347
REMARK  138  A    between atoms: _347  and  _348
REMARK  139  A    between atoms: _351  and  _353
REMARK  140  A    between atoms: _353  and  _354
REMARK  141  A    between atoms: _357  and  _359
REMARK  142  A    between atoms: _359  and  _360
REMARK  143  A    between atoms: _363  and  _365
REMARK  144  A    between atoms: _365  and  _366
REMARK  145  A    between atoms: _365  and  _368
REMARK  146  A    between atoms: _368  and  _369
REMARK  147  A    between atoms: _372  and  _374
REMARK  148  A    between atoms: _374  and  _375
REMARK  149  A    between atoms: _374  and  _377
REMARK  150  A    between atoms: _377  and  _378
REMARK  151  A    between atoms: _380  and  _382
REMARK  152  A    between atoms: _382  and  _383
REMARK  153  A    between atoms: _382  and  _385
REMARK  154  A    between atoms: _385  and  _386
REMARK  155  A    between atoms: _391  and  _393
REMARK  156  A    between atoms: _393  and  _394
REMARK  157  A    between atoms: _397  and  _399
REMARK  158  A    between atoms: _399  and  _400
REMARK  159  A    between atoms: _399  and  _402
REMARK  160  A    between atoms: _402  and  _403
REMARK  161  A    between atoms: _403  and  _404
REMARK  162  A    between atoms: _407  and  _409
REMARK  163  A    between atoms: _409  and  _410
REMARK  164  A    between atoms: _409  and  _412
REMARK  165  A    between atoms: _415  and  _417
REMARK  166  A    between atoms: _417  and  _418
REMARK  167  A    between atoms: _417  and  _420
REMARK  168  A    between atoms: _420  and  _421
REMARK  169  A    between atoms: _424  and  _426
REMARK  170  A    between atoms: _426  and  _427
REMARK  171  A    between atoms: _429  and  _431
REMARK  172  A    between atoms: _431  and  _432
REMARK  173  A    between atoms: _431  and  _434
REMARK  174  A    between atoms: _434  and  _435
REMARK  175  A    between atoms: _435  and  _436
REMARK  176  A    between atoms: _439  and  _441
REMARK  177  A    between atoms: _441  and  _442
REMARK  178  A    between atoms: _441  and  _444
REMARK  179  A    between atoms: _444  and  _445
REMARK  180  A    between atoms: _451  and  _453
REMARK  181  A    between atoms: _453  and  _454
REMARK  182  A    between atoms: _453  and  _456
REMARK                            x       y       z     vdW  Elec       q    Type
REMARK                         _______ _______ _______ _____ _____    ______ ____
ROOT
ATOM      1  O   HOH     1      56.760  26.216  46.623  0.00  0.00    +0.000 OA
ENDROOT
TORSDOF 0
REMARK  Name = ../refined-set-2016/1g2o/1g2o_pocket.pdb
REMARK  182 active torsions:
REMARK  status: ('A' for Active; 'I' for Inactive)
REMARK    1  A    between atoms: _1  and  _3
REMARK    2  A    between atoms: _3  and  _4
REMARK    3  A    between atoms: _6  and  _8
REMARK    4  A    between atoms: _8  and  _9
REMARK    5  A    between atoms: _8  and  _11
REMARK    6  A    between atoms: _11  and  _12
REMARK    7  A    between atoms: _14  and  _16
REMARK    8  A    between atoms: _16  and  _17
REMARK    9  A    between atoms: _19  and  _21
REMARK   10  A    between atoms: _21  and  _22
REMARK   11  A    between atoms: _25  and  _27
REMARK   12  A    between atoms: _27  and  _28
REMARK   13  A    between atoms: _31  and  _33
REMARK   14  A    between atoms: _33  and  _34
REMARK   15  A    between atoms: _33  and  _36
REMARK   16  A    between atoms: _36  and  _37
REMARK   17  A    between atoms: _42  and  _44
REMARK   18  A    between atoms: _44  and  _45
REMARK   19  A    between atoms: _44  and  _47
REMARK   20  A    between atoms: _47  and  _48
REMARK   21  A    between atoms: _48  and  _49
REMARK   22  A    between atoms: _49  and  _50
REMARK   23  A    between atoms: _59  and  _61
REMARK   24  A    between atoms: _61  and  _62
REMARK   25  A    between atoms: _61  and  _64
REMARK   26  A    between atoms: _64  and  _65
REMARK   27  A    between atoms: _68  and  _70
REMARK   28  A    between atoms: _70  and  _71
REMARK   29  A    between atoms: _70  and  _73
REMARK   30  A    between atoms: _73  and  _74
REMARK   31  A    between atoms: _79  and  _81
REMARK   32  A    between atoms: _81  and  _82
REMARK   33  A    between atoms: _85  and  _87
REMARK   34  A    between atoms: _87  and  _88
REMARK   35  A    between atoms: _87  and  _90
REMARK   36  A    between atoms: _90  and  _91
REMARK   37  A    between atoms: _96  and  _97
REMARK   38  A    between atoms: _99  and  _101
REMARK   39  A    between atoms: _101  and  _102
REMARK   40  A    between atoms: _101  and  _104
REMARK   41  A    between atoms: _104  and  _105
REMARK   42  A    between atoms: _105  and  _106
REMARK   43  A    between atoms: _109  and  _111
REMARK   44  A    between atoms: _111  and  _112
REMARK   45  A    between atoms: _111  and  _114
REMARK   46  A    between atoms: _114  and  _115
REMARK   47  A    between atoms: _120  and  _122
REMARK   48  A    between atoms: _122  and  _123
REMARK   49  A    between atoms: _126  and  _128
REMARK   50  A    between atoms: _128  and  _129
REMARK   51  A    between atoms: _132  and  _134
REMARK   52  A    between atoms: _134  and  _135
REMARK   53  A    between atoms: _137  and  _139
REMARK   54  A    between atoms: _139  and  _140
REMARK   55  A    between atoms: _142  and  _144
REMARK   56  A    between atoms: _144  and  _145
REMARK   57  A    between atoms: _144  and  _147
REMARK   58  A    between atoms: _147  and  _148
REMARK   59  A    between atoms: _151  and  _153
REMARK   60  A    between atoms: _153  and  _154
REMARK   61  A    between atoms: _153  and  _156
REMARK   62  A    between atoms: _156  and  _157
REMARK   63  A    between atoms: _162  and  _163
REMARK   64  A    between atoms: _165  and  _167
REMARK   65  A    between atoms: _167  and  _168
REMARK   66  A    between atoms: _171  and  _173
REMARK   67  A    between atoms: _173  and  _174
REMARK   68  A    between atoms: _176  and  _178
REMARK   69  A    between atoms: _178  and  _179
REMARK   70  A    between atoms: _178  and  _181
REMARK   71  A    between atoms: _181  and  _182
REMARK   72  A    between atoms: _186  and  _187
REMARK   73  A    between atoms: _192  and  _194
REMARK   74  A    between atoms: _194  and  _195
REMARK   75  A    between atoms: _198  and  _199
REMARK   76  A    between atoms: _204  and  _206
REMARK   77  A    between atoms: _206  and  _207
REMARK   78  A    between atoms: _206  and  _209
REMARK   79  A    between atoms: _209  and  _210
REMARK   80  A    between atoms: _215  and  _217
REMARK   81  A    between atoms: _217  and  _218
REMARK   82  A    between atoms: _217  and  _220
REMARK   83  A    between atoms: _220  and  _221
REMARK   84  A    between atoms: _226  and  _227
REMARK   85  A    between atoms: _229  and  _231
REMARK   86  A    between atoms: _231  and  _232
REMARK   87  A    between atoms: _231  and  _234
REMARK   88  A    between atoms: _234  and  _235
REMARK   89  A    between atoms: _235  and  _236
REMARK   90  A    between atoms: _239  and  _241
REMARK   91  A    between atoms: _241  and  _242
REMARK   92  A    between atoms: _241  and  _244
REMARK   93  A    between atoms: _244  and  _245
REMARK   94  A    between atoms: _248  and  _250
REMARK   95  A    between atoms: _250  and  _251
REMARK   96  A    between atoms: _250  and  _253
REMARK   97  A    between atoms: _253  and  _254
REMARK   98  A    between atoms: _257  and  _259
REMARK   99  A    between atoms: _259  and  _260
REMARK  100  A    between atoms: _259  and  _262
REMARK  101  A    between atoms: _262  and  _263
REMARK  102  A    between atoms: _266  and  _268
REMARK  103  A    between atoms: _268  and  _269
REMARK  104  A    between atoms: _268  and  _271
REMARK  105  A    between atoms: _274  and  _276
REMARK  106  A    between atoms: _276  and  _277
REMARK  107  A    between atoms: _279  and  _281
REMARK  108  A    between atoms: _281  and  _282
REMARK  109  A    between atoms: _281  and  _284
REMARK  110  A    between atoms: _284  and  _285
REMARK  111  A    between atoms: _285  and  _286
REMARK  112  A    between atoms: _288  and  _290
REMARK  113  A    between atoms: _290  and  _291
REMARK  114  A    between atoms: _290  and  _293
REMARK  115  A    between atoms: _293  and  _294
REMARK  116  A    between atoms: _296  and  _298
REMARK  117  A    between atoms: _298  and  _299
REMARK  118  A    between atoms: _298  and  _301
REMARK  119  A    between atoms: _301  and  _302
REMARK  120  A    between atoms: _305  and  _307
REMARK  121  A    between atoms: _307  and  _308
REMARK  122  A    between atoms: _307  and  _310
REMARK  123  A    between atoms: _310  and  _311
REMARK  124  A    between atoms: _314  and  _316
REMARK  125  A    between atoms: _316  and  _317
REMARK  126  A    between atoms: _316  and  _319
REMARK  127  A    between atoms: _322  and  _324
REMARK  128  A    between atoms: _324  and  _325
REMARK  129  A    between atoms: _324  and  _327
REMARK  130  A    between atoms: _327  and  _328
REMARK  131  A    between atoms: _331  and  _333
REMARK  132  A    between atoms: _333  and  _334
REMARK  133  A    between atoms: _333  and  _336
REMARK  134  A    between atoms: _336  and  _337
REMARK  135  A    between atoms: _342  and  _344
REMARK  136  A    between atoms: _344  and  _345
REMARK  137  A    between atoms: _344  and  _347
REMARK  138  A    between atoms: _347  and  _348
REMARK  139  A    between atoms: _351  and  _353
REMARK  140  A    between atoms: _353  and  _354
REMARK  141  A    between atoms: _357  and  _359
REMARK  142  A    between atoms: _359  and  _360
REMARK  143  A    between atoms: _363  and  _365
REMARK  144  A    between atoms: _365  and  _366
REMARK  145  A    between atoms: _365  and  _368
REMARK  146  A    between atoms: _368  and  _369
REMARK  147  A    between atoms: _372  and  _374
REMARK  148  A    between atoms: _374  and  _375
REMARK  149  A    between atoms: _374  and  _377
REMARK  150  A    between atoms: _377  and  _378
REMARK  151  A    between atoms: _380  and  _382
REMARK  152  A    between atoms: _382  and  _383
REMARK  153  A    between atoms: _382  and  _385
REMARK  154  A    between atoms: _385  and  _386
REMARK  155  A    between atoms: _391  and  _393
REMARK  156  A    between atoms: _393  and  _394
REMARK  157  A    between atoms: _397  and  _399
REMARK  158  A    between atoms: _399  and  _400
REMARK  159  A    between atoms: _399  and  _402
REMARK  160  A    between atoms: _402  and  _403
REMARK  161  A    between atoms: _403  and  _404
REMARK  162  A    between atoms: _407  and  _409
REMARK  163  A    between atoms: _409  and  _410
REMARK  164  A    between atoms: _409  and  _412
REMARK  165  A    between atoms: _415  and  _417
REMARK  166  A    between atoms: _417  and  _418
REMARK  167  A    between atoms: _417  and  _420
REMARK  168  A    between atoms: _420  and  _421
REMARK  169  A    between atoms: _424  and  _426
REMARK  170  A    between atoms: _426  and  _427
REMARK  171  A    between atoms: _429  and  _431
REMARK  172  A    between atoms: _431  and  _432
REMARK  173  A    between atoms: _431  and  _434
REMARK  174  A    between atoms: _434  and  _435
REMARK  175  A    between atoms: _435  and  _436
REMARK  176  A    between atoms: _439  and  _441
REMARK  177  A    between atoms: _441  and  _442
REMARK  178  A    between atoms: _441  and  _444
REMARK  179  A    between atoms: _444  and  _445
REMARK  180  A    between atoms: _451  and  _453
REMARK  181  A    between atoms: _453  and  _454
REMARK  182  A    between atoms: _453  and  _456
REMARK                            x       y       z     vdW  Elec       q    Type
REMARK                         _______ _______ _______ _____ _____    ______ ____
ROOT
ATOM      1  O   HOH     1      49.971  10.463  44.698  0.00  0.00    +0.000 OA
ENDROOT
TORSDOF 0
REMARK  Name = ../refined-set-2016/1g2o/1g2o_pocket.pdb
REMARK  182 active torsions:
REMARK  status: ('A' for Active; 'I' for Inactive)
REMARK    1  A    between atoms: _1  and  _3
REMARK    2  A    between atoms: _3  and  _4
REMARK    3  A    between atoms: _6  and  _8
REMARK    4  A    between atoms: _8  and  _9
REMARK    5  A    between atoms: _8  and  _11
REMARK    6  A    between atoms: _11  and  _12
REMARK    7  A    between atoms: _14  and  _16
REMARK    8  A    between atoms: _16  and  _17
REMARK    9  A    between atoms: _19  and  _21
REMARK   10  A    between atoms: _21  and  _22
REMARK   11  A    between atoms: _25  and  _27
REMARK   12  A    between atoms: _27  and  _28
REMARK   13  A    between atoms: _31  and  _33
REMARK   14  A    between atoms: _33  and  _34
REMARK   15  A    between atoms: _33  and  _36
REMARK   16  A    between atoms: _36  and  _37
REMARK   17  A    between atoms: _42  and  _44
REMARK   18  A    between atoms: _44  and  _45
REMARK   19  A    between atoms: _44  and  _47
REMARK   20  A    between atoms: _47  and  _48
REMARK   21  A    between atoms: _48  and  _49
REMARK   22  A    between atoms: _49  and  _50
REMARK   23  A    between atoms: _59  and  _61
REMARK   24  A    between atoms: _61  and  _62
REMARK   25  A    between atoms: _61  and  _64
REMARK   26  A    between atoms: _64  and  _65
REMARK   27  A    between atoms: _68  and  _70
REMARK   28  A    between atoms: _70  and  _71
REMARK   29  A    between atoms: _70  and  _73
REMARK   30  A    between atoms: _73  and  _74
REMARK   31  A    between atoms: _79  and  _81
REMARK   32  A    between atoms: _81  and  _82
REMARK   33  A    between atoms: _85  and  _87
REMARK   34  A    between atoms: _87  and  _88
REMARK   35  A    between atoms: _87  and  _90
REMARK   36  A    between atoms: _90  and  _91
REMARK   37  A    between atoms: _96  and  _97
REMARK   38  A    between atoms: _99  and  _101
REMARK   39  A    between atoms: _101  and  _102
REMARK   40  A    between atoms: _101  and  _104
REMARK   41  A    between atoms: _104  and  _105
REMARK   42  A    between atoms: _105  and  _106
REMARK   43  A    between atoms: _109  and  _111
REMARK   44  A    between atoms: _111  and  _112
REMARK   45  A    between atoms: _111  and  _114
REMARK   46  A    between atoms: _114  and  _115
REMARK   47  A    between atoms: _120  and  _122
REMARK   48  A    between atoms: _122  and  _123
REMARK   49  A    between atoms: _126  and  _128
REMARK   50  A    between atoms: _128  and  _129
REMARK   51  A    between atoms: _132  and  _134
REMARK   52  A    between atoms: _134  and  _135
REMARK   53  A    between atoms: _137  and  _139
REMARK   54  A    between atoms: _139  and  _140
REMARK   55  A    between atoms: _142  and  _144
REMARK   56  A    between atoms: _144  and  _145
REMARK   57  A    between atoms: _144  and  _147
REMARK   58  A    between atoms: _147  and  _148
REMARK   59  A    between atoms: _151  and  _153
REMARK   60  A    between atoms: _153  and  _154
REMARK   61  A    between atoms: _153  and  _156
REMARK   62  A    between atoms: _156  and  _157
REMARK   63  A    between atoms: _162  and  _163
REMARK   64  A    between atoms: _165  and  _167
REMARK   65  A    between atoms: _167  and  _168
REMARK   66  A    between atoms: _171  and  _173
REMARK   67  A    between atoms: _173  and  _174
REMARK   68  A    between atoms: _176  and  _178
REMARK   69  A    between atoms: _178  and  _179
REMARK   70  A    between atoms: _178  and  _181
REMARK   71  A    between atoms: _181  and  _182
REMARK   72  A    between atoms: _186  and  _187
REMARK   73  A    between atoms: _192  and  _194
REMARK   74  A    between atoms: _194  and  _195
REMARK   75  A    between atoms: _198  and  _199
REMARK   76  A    between atoms: _204  and  _206
REMARK   77  A    between atoms: _206  and  _207
REMARK   78  A    between atoms: _206  and  _209
REMARK   79  A    between atoms: _209  and  _210
REMARK   80  A    between atoms: _215  and  _217
REMARK   81  A    between atoms: _217  and  _218
REMARK   82  A    between atoms: _217  and  _220
REMARK   83  A    between atoms: _220  and  _221
REMARK   84  A    between atoms: _226  and  _227
REMARK   85  A    between atoms: _229  and  _231
REMARK   86  A    between atoms: _231  and  _232
REMARK   87  A    between atoms: _231  and  _234
REMARK   88  A    between atoms: _234  and  _235
REMARK   89  A    between atoms: _235  and  _236
REMARK   90  A    between atoms: _239  and  _241
REMARK   91  A    between atoms: _241  and  _242
REMARK   92  A    between atoms: _241  and  _244
REMARK   93  A    between atoms: _244  and  _245
REMARK   94  A    between atoms: _248  and  _250
REMARK   95  A    between atoms: _250  and  _251
REMARK   96  A    between atoms: _250  and  _253
REMARK   97  A    between atoms: _253  and  _254
REMARK   98  A    between atoms: _257  and  _259
REMARK   99  A    between atoms: _259  and  _260
REMARK  100  A    between atoms: _259  and  _262
REMARK  101  A    between atoms: _262  and  _263
REMARK  102  A    between atoms: _266  and  _268
REMARK  103  A    between atoms: _268  and  _269
REMARK  104  A    between atoms: _268  and  _271
REMARK  105  A    between atoms: _274  and  _276
REMARK  106  A    between atoms: _276  and  _277
REMARK  107  A    between atoms: _279  and  _281
REMARK  108  A    between atoms: _281  and  _282
REMARK  109  A    between atoms: _281  and  _284
REMARK  110  A    between atoms: _284  and  _285
REMARK  111  A    between atoms: _285  and  _286
REMARK  112  A    between atoms: _288  and  _290
REMARK  113  A    between atoms: _290  and  _291
REMARK  114  A    between atoms: _290  and  _293
REMARK  115  A    between atoms: _293  and  _294
REMARK  116  A    between atoms: _296  and  _298
REMARK  117  A    between atoms: _298  and  _299
REMARK  118  A    between atoms: _298  and  _301
REMARK  119  A    between atoms: _301  and  _302
REMARK  120  A    between atoms: _305  and  _307
REMARK  121  A    between atoms: _307  and  _308
REMARK  122  A    between atoms: _307  and  _310
REMARK  123  A    between atoms: _310  and  _311
REMARK  124  A    between atoms: _314  and  _316
REMARK  125  A    between atoms: _316  and  _317
REMARK  126  A    between atoms: _316  and  _319
REMARK  127  A    between atoms: _322  and  _324
REMARK  128  A    between atoms: _324  and  _325
REMARK  129  A    between atoms: _324  and  _327
REMARK  130  A    between atoms: _327  and  _328
REMARK  131  A    between atoms: _331  and  _333
REMARK  132  A    between atoms: _333  and  _334
REMARK  133  A    between atoms: _333  and  _336
REMARK  134  A    between atoms: _336  and  _337
REMARK  135  A    between atoms: _342  and  _344
REMARK  136  A    between atoms: _344  and  _345
REMARK  137  A    between atoms: _344  and  _347
REMARK  138  A    between atoms: _347  and  _348
REMARK  139  A    between atoms: _351  and  _353
REMARK  140  A    between atoms: _353  and  _354
REMARK  141  A    between atoms: _357  and  _359
REMARK  142  A    between atoms: _359  and  _360
REMARK  143  A    between atoms: _363  and  _365
REMARK  144  A    between atoms: _365  and  _366
REMARK  145  A    between atoms: _365  and  _368
REMARK  146  A    between atoms: _368  and  _369
REMARK  147  A    between atoms: _372  and  _374
REMARK  148  A    between atoms: _374  and  _375
REMARK  149  A    between atoms: _374  and  _377
REMARK  150  A    between atoms: _377  and  _378
REMARK  151  A    between atoms: _380  and  _382
REMARK  152  A    between atoms: _382  and  _383
REMARK  153  A    between atoms: _382  and  _385
REMARK  154  A    between atoms: _385  and  _386
REMARK  155  A    between atoms: _391  and  _393
REMARK  156  A    between atoms: _393  and  _394
REMARK  157  A    between atoms: _397  and  _399
REMARK  158  A    between atoms: _399  and  _400
REMARK  159  A    between atoms: _399  and  _402
REMARK  160  A    between atoms: _402  and  _403
REMARK  161  A    between atoms: _403  and  _404
REMARK  162  A    between atoms: _407  and  _409
REMARK  163  A    between atoms: _409  and  _410
REMARK  164  A    between atoms: _409  and  _412
REMARK  165  A    between atoms: _415  and  _417
REMARK  166  A    between atoms: _417  and  _418
REMARK  167  A    between atoms: _417  and  _420
REMARK  168  A    between atoms: _420  and  _421
REMARK  169  A    between atoms: _424  and  _426
REMARK  170  A    between atoms: _426  and  _427
REMARK  171  A    between atoms: _429  and  _431
REMARK  172  A    between atoms: _431  and  _432
REMARK  173  A    between atoms: _431  and  _434
REMARK  174  A    between atoms: _434  and  _435
REMARK  175  A    between atoms: _435  and  _436
REMARK  176  A    between atoms: _439  and  _441
REMARK  177  A    between atoms: _441  and  _442
REMARK  178  A    between atoms: _441  and  _444
REMARK  179  A    between atoms: _444  and  _445
REMARK  180  A    between atoms: _451  and  _453
REMARK  181  A    between atoms: _453  and  _454
REMARK  182  A    between atoms: _453  and  _456
REMARK                            x       y       z     vdW  Elec       q    Type
REMARK                         _______ _______ _______ _____ _____    ______ ____
ROOT
ATOM      1  O   HOH     1      52.196  11.009  50.118  0.00  0.00    +0.000 OA
ENDROOT
TORSDOF 0
REMARK  Name = ../refined-set-2016/1g2o/1g2o_pocket.pdb
REMARK  182 active torsions:
REMARK  status: ('A' for Active; 'I' for Inactive)
REMARK    1  A    between atoms: _1  and  _3
REMARK    2  A    between atoms: _3  and  _4
REMARK    3  A    between atoms: _6  and  _8
REMARK    4  A    between atoms: _8  and  _9
REMARK    5  A    between atoms: _8  and  _11
REMARK    6  A    between atoms: _11  and  _12
REMARK    7  A    between atoms: _14  and  _16
REMARK    8  A    between atoms: _16  and  _17
REMARK    9  A    between atoms: _19  and  _21
REMARK   10  A    between atoms: _21  and  _22
REMARK   11  A    between atoms: _25  and  _27
REMARK   12  A    between atoms: _27  and  _28
REMARK   13  A    between atoms: _31  and  _33
REMARK   14  A    between atoms: _33  and  _34
REMARK   15  A    between atoms: _33  and  _36
REMARK   16  A    between atoms: _36  and  _37
REMARK   17  A    between atoms: _42  and  _44
REMARK   18  A    between atoms: _44  and  _45
REMARK   19  A    between atoms: _44  and  _47
REMARK   20  A    between atoms: _47  and  _48
REMARK   21  A    between atoms: _48  and  _49
REMARK   22  A    between atoms: _49  and  _50
REMARK   23  A    between atoms: _59  and  _61
REMARK   24  A    between atoms: _61  and  _62
REMARK   25  A    between atoms: _61  and  _64
REMARK   26  A    between atoms: _64  and  _65
REMARK   27  A    between atoms: _68  and  _70
REMARK   28  A    between atoms: _70  and  _71
REMARK   29  A    between atoms: _70  and  _73
REMARK   30  A    between atoms: _73  and  _74
REMARK   31  A    between atoms: _79  and  _81
REMARK   32  A    between atoms: _81  and  _82
REMARK   33  A    between atoms: _85  and  _87
REMARK   34  A    between atoms: _87  and  _88
REMARK   35  A    between atoms: _87  and  _90
REMARK   36  A    between atoms: _90  and  _91
REMARK   37  A    between atoms: _96  and  _97
REMARK   38  A    between atoms: _99  and  _101
REMARK   39  A    between atoms: _101  and  _102
REMARK   40  A    between atoms: _101  and  _104
REMARK   41  A    between atoms: _104  and  _105
REMARK   42  A    between atoms: _105  and  _106
REMARK   43  A    between atoms: _109  and  _111
REMARK   44  A    between atoms: _111  and  _112
REMARK   45  A    between atoms: _111  and  _114
REMARK   46  A    between atoms: _114  and  _115
REMARK   47  A    between atoms: _120  and  _122
REMARK   48  A    between atoms: _122  and  _123
REMARK   49  A    between atoms: _126  and  _128
REMARK   50  A    between atoms: _128  and  _129
REMARK   51  A    between atoms: _132  and  _134
REMARK   52  A    between atoms: _134  and  _135
REMARK   53  A    between atoms: _137  and  _139
REMARK   54  A    between atoms: _139  and  _140
REMARK   55  A    between atoms: _142  and  _144
REMARK   56  A    between atoms: _144  and  _145
REMARK   57  A    between atoms: _144  and  _147
REMARK   58  A    between atoms: _147  and  _148
REMARK   59  A    between atoms: _151  and  _153
REMARK   60  A    between atoms: _153  and  _154
REMARK   61  A    between atoms: _153  and  _156
REMARK   62  A    between atoms: _156  and  _157
REMARK   63  A    between atoms: _162  and  _163
REMARK   64  A    between atoms: _165  and  _167
REMARK   65  A    between atoms: _167  and  _168
REMARK   66  A    between atoms: _171  and  _173
REMARK   67  A    between atoms: _173  and  _174
REMARK   68  A    between atoms: _176  and  _178
REMARK   69  A    between atoms: _178  and  _179
REMARK   70  A    between atoms: _178  and  _181
REMARK   71  A    between atoms: _181  and  _182
REMARK   72  A    between atoms: _186  and  _187
REMARK   73  A    between atoms: _192  and  _194
REMARK   74  A    between atoms: _194  and  _195
REMARK   75  A    between atoms: _198  and  _199
REMARK   76  A    between atoms: _204  and  _206
REMARK   77  A    between atoms: _206  and  _207
REMARK   78  A    between atoms: _206  and  _209
REMARK   79  A    between atoms: _209  and  _210
REMARK   80  A    between atoms: _215  and  _217
REMARK   81  A    between atoms: _217  and  _218
REMARK   82  A    between atoms: _217  and  _220
REMARK   83  A    between atoms: _220  and  _221
REMARK   84  A    between atoms: _226  and  _227
REMARK   85  A    between atoms: _229  and  _231
REMARK   86  A    between atoms: _231  and  _232
REMARK   87  A    between atoms: _231  and  _234
REMARK   88  A    between atoms: _234  and  _235
REMARK   89  A    between atoms: _235  and  _236
REMARK   90  A    between atoms: _239  and  _241
REMARK   91  A    between atoms: _241  and  _242
REMARK   92  A    between atoms: _241  and  _244
REMARK   93  A    between atoms: _244  and  _245
REMARK   94  A    between atoms: _248  and  _250
REMARK   95  A    between atoms: _250  and  _251
REMARK   96  A    between atoms: _250  and  _253
REMARK   97  A    between atoms: _253  and  _254
REMARK   98  A    between atoms: _257  and  _259
REMARK   99  A    between atoms: _259  and  _260
REMARK  100  A    between atoms: _259  and  _262
REMARK  101  A    between atoms: _262  and  _263
REMARK  102  A    between atoms: _266  and  _268
REMARK  103  A    between atoms: _268  and  _269
REMARK  104  A    between atoms: _268  and  _271
REMARK  105  A    between atoms: _274  and  _276
REMARK  106  A    between atoms: _276  and  _277
REMARK  107  A    between atoms: _279  and  _281
REMARK  108  A    between atoms: _281  and  _282
REMARK  109  A    between atoms: _281  and  _284
REMARK  110  A    between atoms: _284  and  _285
REMARK  111  A    between atoms: _285  and  _286
REMARK  112  A    between atoms: _288  and  _290
REMARK  113  A    between atoms: _290  and  _291
REMARK  114  A    between atoms: _290  and  _293
REMARK  115  A    between atoms: _293  and  _294
REMARK  116  A    between atoms: _296  and  _298
REMARK  117  A    between atoms: _298  and  _299
REMARK  118  A    between atoms: _298  and  _301
REMARK  119  A    between atoms: _301  and  _302
REMARK  120  A    between atoms: _305  and  _307
REMARK  121  A    between atoms: _307  and  _308
REMARK  122  A    between atoms: _307  and  _310
REMARK  123  A    between atoms: _310  and  _311
REMARK  124  A    between atoms: _314  and  _316
REMARK  125  A    between atoms: _316  and  _317
REMARK  126  A    between atoms: _316  and  _319
REMARK  127  A    between atoms: _322  and  _324
REMARK  128  A    between atoms: _324  and  _325
REMARK  129  A    between atoms: _324  and  _327
REMARK  130  A    between atoms: _327  and  _328
REMARK  131  A    between atoms: _331  and  _333
REMARK  132  A    between atoms: _333  and  _334
REMARK  133  A    between atoms: _333  and  _336
REMARK  134  A    between atoms: _336  and  _337
REMARK  135  A    between atoms: _342  and  _344
REMARK  136  A    between atoms: _344  and  _345
REMARK  137  A    between atoms: _344  and  _347
REMARK  138  A    between atoms: _347  and  _348
REMARK  139  A    between atoms: _351  and  _353
REMARK  140  A    between atoms: _353  and  _354
REMARK  141  A    between atoms: _357  and  _359
REMARK  142  A    between atoms: _359  and  _360
REMARK  143  A    between atoms: _363  and  _365
REMARK  144  A    between atoms: _365  and  _366
REMARK  145  A    between atoms: _365  and  _368
REMARK  146  A    between atoms: _368  and  _369
REMARK  147  A    between atoms: _372  and  _374
REMARK  148  A    between atoms: _374  and  _375
REMARK  149  A    between atoms: _374  and  _377
REMARK  150  A    between atoms: _377  and  _378
REMARK  151  A    between atoms: _380  and  _382
REMARK  152  A    between atoms: _382  and  _383
REMARK  153  A    between atoms: _382  and  _385
REMARK  154  A    between atoms: _385  and  _386
REMARK  155  A    between atoms: _391  and  _393
REMARK  156  A    between atoms: _393  and  _394
REMARK  157  A    between atoms: _397  and  _399
REMARK  158  A    between atoms: _399  and  _400
REMARK  159  A    between atoms: _399  and  _402
REMARK  160  A    between atoms: _402  and  _403
REMARK  161  A    between atoms: _403  and  _404
REMARK  162  A    between atoms: _407  and  _409
REMARK  163  A    between atoms: _409  and  _410
REMARK  164  A    between atoms: _409  and  _412
REMARK  165  A    between atoms: _415  and  _417
REMARK  166  A    between atoms: _417  and  _418
REMARK  167  A    between atoms: _417  and  _420
REMARK  168  A    between atoms: _420  and  _421
REMARK  169  A    between atoms: _424  and  _426
REMARK  170  A    between atoms: _426  and  _427
REMARK  171  A    between atoms: _429  and  _431
REMARK  172  A    between atoms: _431  and  _432
REMARK  173  A    between atoms: _431  and  _434
REMARK  174  A    between atoms: _434  and  _435
REMARK  175  A    between atoms: _435  and  _436
REMARK  176  A    between atoms: _439  and  _441
REMARK  177  A    between atoms: _441  and  _442
REMARK  178  A    between atoms: _441  and  _444
REMARK  179  A    between atoms: _444  and  _445
REMARK  180  A    between atoms: _451  and  _453
REMARK  181  A    between atoms: _453  and  _454
REMARK  182  A    between atoms: _453  and  _456
REMARK                            x       y       z     vdW  Elec       q    Type
REMARK                         _______ _______ _______ _____ _____    ______ ____
ROOT
ATOM      1  O   HOH     1      52.912   9.145  48.548  0.00  0.00    +0.000 OA
ENDROOT
TORSDOF 0
