REMARK  Name = ../refined-set-2016/3ggu/3ggu_pocket.pdb
REMARK  216 active torsions:
REMARK  status: ('A' for Active; 'I' for Inactive)
REMARK    1  A    between atoms: _1  and  _3
REMARK    2  A    between atoms: _3  and  _4
REMARK    3  A    between atoms: _3  and  _6
REMARK    4  A    between atoms: _6  and  _7
REMARK    5  A    between atoms: _7  and  _8
REMARK    6  A    between atoms: _8  and  _9
REMARK    7  A    between atoms: _18  and  _20
REMARK    8  A    between atoms: _20  and  _21
REMARK    9  A    between atoms: _20  and  _23
REMARK   10  A    between atoms: _23  and  _24
REMARK   11  A    between atoms: _27  and  _29
REMARK   12  A    between atoms: _29  and  _30
REMARK   13  A    between atoms: _29  and  _32
REMARK   14  A    between atoms: _32  and  _33
REMARK   15  A    between atoms: _36  and  _38
REMARK   16  A    between atoms: _38  and  _39
REMARK   17  A    between atoms: _38  and  _41
REMARK   18  A    between atoms: _41  and  _42
REMARK   19  A    between atoms: _45  and  _47
REMARK   20  A    between atoms: _47  and  _48
REMARK   21  A    between atoms: _47  and  _50
REMARK   22  A    between atoms: _50  and  _51
REMARK   23  A    between atoms: _54  and  _56
REMARK   24  A    between atoms: _56  and  _57
REMARK   25  A    between atoms: _59  and  _61
REMARK   26  A    between atoms: _61  and  _62
REMARK   27  A    between atoms: _65  and  _67
REMARK   28  A    between atoms: _67  and  _68
REMARK   29  A    between atoms: _67  and  _70
REMARK   30  A    between atoms: _70  and  _71
REMARK   31  A    between atoms: _74  and  _76
REMARK   32  A    between atoms: _76  and  _77
REMARK   33  A    between atoms: _76  and  _79
REMARK   34  A    between atoms: _79  and  _80
REMARK   35  A    between atoms: _83  and  _85
REMARK   36  A    between atoms: _85  and  _86
REMARK   37  A    between atoms: _85  and  _88
REMARK   38  A    between atoms: _88  and  _89
REMARK   39  A    between atoms: _92  and  _94
REMARK   40  A    between atoms: _94  and  _95
REMARK   41  A    between atoms: _94  and  _97
REMARK   42  A    between atoms: _100  and  _102
REMARK   43  A    between atoms: _102  and  _103
REMARK   44  A    between atoms: _102  and  _105
REMARK   45  A    between atoms: _105  and  _106
REMARK   46  A    between atoms: _106  and  _107
REMARK   47  A    between atoms: _107  and  _108
REMARK   48  A    between atoms: _117  and  _119
REMARK   49  A    between atoms: _119  and  _120
REMARK   50  A    between atoms: _119  and  _122
REMARK   51  A    between atoms: _122  and  _123
REMARK   52  A    between atoms: _126  and  _128
REMARK   53  A    between atoms: _128  and  _129
REMARK   54  A    between atoms: _128  and  _131
REMARK   55  A    between atoms: _131  and  _132
REMARK   56  A    between atoms: _135  and  _137
REMARK   57  A    between atoms: _137  and  _138
REMARK   58  A    between atoms: _140  and  _142
REMARK   59  A    between atoms: _142  and  _143
REMARK   60  A    between atoms: _145  and  _147
REMARK   61  A    between atoms: _147  and  _148
REMARK   62  A    between atoms: _147  and  _150
REMARK   63  A    between atoms: _150  and  _151
REMARK   64  A    between atoms: _154  and  _156
REMARK   65  A    between atoms: _156  and  _157
REMARK   66  A    between atoms: _159  and  _161
REMARK   67  A    between atoms: _161  and  _162
REMARK   68  A    between atoms: _164  and  _166
REMARK   69  A    between atoms: _166  and  _167
REMARK   70  A    between atoms: _166  and  _169
REMARK   71  A    between atoms: _172  and  _174
REMARK   72  A    between atoms: _174  and  _175
REMARK   73  A    between atoms: _174  and  _177
REMARK   74  A    between atoms: _180  and  _182
REMARK   75  A    between atoms: _182  and  _183
REMARK   76  A    between atoms: _182  and  _185
REMARK   77  A    between atoms: _185  and  _186
REMARK   78  A    between atoms: _190  and  _191
REMARK   79  A    between atoms: _196  and  _198
REMARK   80  A    between atoms: _198  and  _199
REMARK   81  A    between atoms: _198  and  _201
REMARK   82  A    between atoms: _201  and  _202
REMARK   83  A    between atoms: _206  and  _207
REMARK   84  A    between atoms: _212  and  _214
REMARK   85  A    between atoms: _214  and  _215
REMARK   86  A    between atoms: _214  and  _217
REMARK   87  A    between atoms: _217  and  _218
REMARK   88  A    between atoms: _221  and  _223
REMARK   89  A    between atoms: _223  and  _224
REMARK   90  A    between atoms: _223  and  _226
REMARK   91  A    between atoms: _226  and  _227
REMARK   92  A    between atoms: _232  and  _234
REMARK   93  A    between atoms: _234  and  _235
REMARK   94  A    between atoms: _234  and  _237
REMARK   95  A    between atoms: _240  and  _242
REMARK   96  A    between atoms: _242  and  _243
REMARK   97  A    between atoms: _242  and  _245
REMARK   98  A    between atoms: _245  and  _246
REMARK   99  A    between atoms: _249  and  _251
REMARK  100  A    between atoms: _251  and  _252
REMARK  101  A    between atoms: _254  and  _256
REMARK  102  A    between atoms: _256  and  _257
REMARK  103  A    between atoms: _256  and  _259
REMARK  104  A    between atoms: _259  and  _260
REMARK  105  A    between atoms: _260  and  _261
REMARK  106  A    between atoms: _261  and  _262
REMARK  107  A    between atoms: _271  and  _273
REMARK  108  A    between atoms: _273  and  _274
REMARK  109  A    between atoms: _273  and  _276
REMARK  110  A    between atoms: _276  and  _277
REMARK  111  A    between atoms: _282  and  _284
REMARK  112  A    between atoms: _284  and  _285
REMARK  113  A    between atoms: _284  and  _287
REMARK  114  A    between atoms: _287  and  _288
REMARK  115  A    between atoms: _288  and  _289
REMARK  116  A    between atoms: _289  and  _290
REMARK  117  A    between atoms: _299  and  _301
REMARK  118  A    between atoms: _301  and  _302
REMARK  119  A    between atoms: _301  and  _304
REMARK  120  A    between atoms: _304  and  _305
REMARK  121  A    between atoms: _308  and  _310
REMARK  122  A    between atoms: _310  and  _311
REMARK  123  A    between atoms: _310  and  _313
REMARK  124  A    between atoms: _313  and  _314
REMARK  125  A    between atoms: _317  and  _319
REMARK  126  A    between atoms: _319  and  _320
REMARK  127  A    between atoms: _319  and  _322
REMARK  128  A    between atoms: _322  and  _323
REMARK  129  A    between atoms: _326  and  _328
REMARK  130  A    between atoms: _328  and  _329
REMARK  131  A    between atoms: _328  and  _331
REMARK  132  A    between atoms: _331  and  _332
REMARK  133  A    between atoms: _335  and  _337
REMARK  134  A    between atoms: _337  and  _338
REMARK  135  A    between atoms: _340  and  _342
REMARK  136  A    between atoms: _342  and  _343
REMARK  137  A    between atoms: _346  and  _348
REMARK  138  A    between atoms: _348  and  _349
REMARK  139  A    between atoms: _348  and  _351
REMARK  140  A    between atoms: _351  and  _352
REMARK  141  A    between atoms: _355  and  _357
REMARK  142  A    between atoms: _357  and  _358
REMARK  143  A    between atoms: _357  and  _360
REMARK  144  A    between atoms: _360  and  _361
REMARK  145  A    between atoms: _364  and  _366
REMARK  146  A    between atoms: _366  and  _367
REMARK  147  A    between atoms: _366  and  _369
REMARK  148  A    between atoms: _369  and  _370
REMARK  149  A    between atoms: _373  and  _375
REMARK  150  A    between atoms: _375  and  _376
REMARK  151  A    between atoms: _375  and  _378
REMARK  152  A    between atoms: _381  and  _383
REMARK  153  A    between atoms: _383  and  _384
REMARK  154  A    between atoms: _383  and  _386
REMARK  155  A    between atoms: _386  and  _387
REMARK  156  A    between atoms: _387  and  _388
REMARK  157  A    between atoms: _388  and  _389
REMARK  158  A    between atoms: _398  and  _400
REMARK  159  A    between atoms: _400  and  _401
REMARK  160  A    between atoms: _400  and  _403
REMARK  161  A    between atoms: _403  and  _404
REMARK  162  A    between atoms: _407  and  _409
REMARK  163  A    between atoms: _409  and  _410
REMARK  164  A    between atoms: _409  and  _412
REMARK  165  A    between atoms: _412  and  _413
REMARK  166  A    between atoms: _416  and  _418
REMARK  167  A    between atoms: _418  and  _419
REMARK  168  A    between atoms: _421  and  _423
REMARK  169  A    between atoms: _423  and  _424
REMARK  170  A    between atoms: _426  and  _428
REMARK  171  A    between atoms: _428  and  _429
REMARK  172  A    between atoms: _428  and  _431
REMARK  173  A    between atoms: _431  and  _432
REMARK  174  A    between atoms: _435  and  _437
REMARK  175  A    between atoms: _437  and  _438
REMARK  176  A    between atoms: _440  and  _442
REMARK  177  A    between atoms: _442  and  _443
REMARK  178  A    between atoms: _445  and  _447
REMARK  179  A    between atoms: _447  and  _448
REMARK  180  A    between atoms: _447  and  _450
REMARK  181  A    between atoms: _453  and  _455
REMARK  182  A    between atoms: _455  and  _456
REMARK  183  A    between atoms: _455  and  _458
REMARK  184  A    between atoms: _458  and  _459
REMARK  185  A    between atoms: _462  and  _464
REMARK  186  A    between atoms: _464  and  _465
REMARK  187  A    between atoms: _464  and  _467
REMARK  188  A    between atoms: _467  and  _468
REMARK  189  A    between atoms: _472  and  _473
REMARK  190  A    between atoms: _478  and  _480
REMARK  191  A    between atoms: _480  and  _481
REMARK  192  A    between atoms: _480  and  _483
REMARK  193  A    between atoms: _483  and  _484
REMARK  194  A    between atoms: _487  and  _489
REMARK  195  A    between atoms: _489  and  _490
REMARK  196  A    between atoms: _489  and  _492
REMARK  197  A    between atoms: _492  and  _493
REMARK  198  A    between atoms: _498  and  _500
REMARK  199  A    between atoms: _500  and  _501
REMARK  200  A    between atoms: _500  and  _503
REMARK  201  A    between atoms: _506  and  _508
REMARK  202  A    between atoms: _508  and  _509
REMARK  203  A    between atoms: _508  and  _511
REMARK  204  A    between atoms: _511  and  _512
REMARK  205  A    between atoms: _515  and  _517
REMARK  206  A    between atoms: _517  and  _518
REMARK  207  A    between atoms: _520  and  _522
REMARK  208  A    between atoms: _522  and  _523
REMARK  209  A    between atoms: _522  and  _525
REMARK  210  A    between atoms: _525  and  _526
REMARK  211  A    between atoms: _526  and  _527
REMARK  212  A    between atoms: _527  and  _528
REMARK  213  A    between atoms: _537  and  _539
REMARK  214  A    between atoms: _539  and  _540
REMARK  215  A    between atoms: _539  and  _542
REMARK  216  A    between atoms: _542  and  _543
REMARK                            x       y       z     vdW  Elec       q    Type
REMARK                         _______ _______ _______ _____ _____    ______ ____
ROOT
ATOM      1  NE  ARG A   1     -18.249  15.171  33.299  0.00  0.00    -0.265 N 
ATOM      2  HE  ARG A   1     -18.608  15.262  34.271  0.00  0.00    +0.259 HD
ATOM      3  CZ  ARG A   1     -17.301  14.262  33.075  0.00  0.00    +0.342 C 
ATOM      4  NH2 ARG A   1     -16.861  13.513  34.080  0.00  0.00    -0.292 N 
ATOM      5 HH21 ARG A   1     -17.256  13.638  35.034  0.00  0.00    +0.255 HD
ATOM      6 HH22 ARG A   1     -16.121  12.801  33.913  0.00  0.00    +0.255 HD
ATOM      7  NH1 ARG A   1     -16.776  14.109  31.860  0.00  0.00    -0.292 N 
ATOM      8 HH11 ARG A   1     -16.037  13.396  31.699  0.00  0.00    +0.255 HD
ATOM      9 HH12 ARG A   1     -17.106  14.703  31.073  0.00  0.00    +0.255 HD
ENDROOT
BRANCH   1  10
ATOM     10  CD  ARG A   1     -18.821  16.049  32.281  0.00  0.00    +0.174 C 
BRANCH  10  11
ATOM     11  CG  ARG A   1     -19.530  17.240  32.899  0.00  0.00    +0.045 C 
BRANCH  11  12
ATOM     12  CB  ARG A   1     -20.377  17.958  31.871  0.00  0.00    +0.029 C 
BRANCH  12  13
ATOM     13  CA  ARG A   1     -20.545  19.452  32.148  0.00  0.00    +0.133 C 
BRANCH  13  14
ATOM     14  N   ARG A   1     -21.133  19.658  33.463  0.00  0.00    -0.239 NA
ATOM     15  H   ARG A   1     -21.323  18.838  34.074  0.00  0.00    +0.142 HD
ENDBRANCH  13  14
BRANCH  13  16
ATOM     16  C   ARG A   1     -21.493  20.060  31.121  0.00  0.00    +0.224 C 
ATOM     17  O   ARG A   1     -22.707  19.840  31.195  0.00  0.00    -0.287 OA
ENDBRANCH  13  16
ENDBRANCH  12  13
ENDBRANCH  11  12
ENDBRANCH  10  11
ENDBRANCH   1  10
TORSDOF 6
REMARK  Name = ../refined-set-2016/3ggu/3ggu_pocket.pdb
REMARK  216 active torsions:
REMARK  status: ('A' for Active; 'I' for Inactive)
REMARK    1  A    between atoms: _1  and  _3
REMARK    2  A    between atoms: _3  and  _4
REMARK    3  A    between atoms: _3  and  _6
REMARK    4  A    between atoms: _6  and  _7
REMARK    5  A    between atoms: _7  and  _8
REMARK    6  A    between atoms: _8  and  _9
REMARK    7  A    between atoms: _18  and  _20
REMARK    8  A    between atoms: _20  and  _21
REMARK    9  A    between atoms: _20  and  _23
REMARK   10  A    between atoms: _23  and  _24
REMARK   11  A    between atoms: _27  and  _29
REMARK   12  A    between atoms: _29  and  _30
REMARK   13  A    between atoms: _29  and  _32
REMARK   14  A    between atoms: _32  and  _33
REMARK   15  A    between atoms: _36  and  _38
REMARK   16  A    between atoms: _38  and  _39
REMARK   17  A    between atoms: _38  and  _41
REMARK   18  A    between atoms: _41  and  _42
REMARK   19  A    between atoms: _45  and  _47
REMARK   20  A    between atoms: _47  and  _48
REMARK   21  A    between atoms: _47  and  _50
REMARK   22  A    between atoms: _50  and  _51
REMARK   23  A    between atoms: _54  and  _56
REMARK   24  A    between atoms: _56  and  _57
REMARK   25  A    between atoms: _59  and  _61
REMARK   26  A    between atoms: _61  and  _62
REMARK   27  A    between atoms: _65  and  _67
REMARK   28  A    between atoms: _67  and  _68
REMARK   29  A    between atoms: _67  and  _70
REMARK   30  A    between atoms: _70  and  _71
REMARK   31  A    between atoms: _74  and  _76
REMARK   32  A    between atoms: _76  and  _77
REMARK   33  A    between atoms: _76  and  _79
REMARK   34  A    between atoms: _79  and  _80
REMARK   35  A    between atoms: _83  and  _85
REMARK   36  A    between atoms: _85  and  _86
REMARK   37  A    between atoms: _85  and  _88
REMARK   38  A    between atoms: _88  and  _89
REMARK   39  A    between atoms: _92  and  _94
REMARK   40  A    between atoms: _94  and  _95
REMARK   41  A    between atoms: _94  and  _97
REMARK   42  A    between atoms: _100  and  _102
REMARK   43  A    between atoms: _102  and  _103
REMARK   44  A    between atoms: _102  and  _105
REMARK   45  A    between atoms: _105  and  _106
REMARK   46  A    between atoms: _106  and  _107
REMARK   47  A    between atoms: _107  and  _108
REMARK   48  A    between atoms: _117  and  _119
REMARK   49  A    between atoms: _119  and  _120
REMARK   50  A    between atoms: _119  and  _122
REMARK   51  A    between atoms: _122  and  _123
REMARK   52  A    between atoms: _126  and  _128
REMARK   53  A    between atoms: _128  and  _129
REMARK   54  A    between atoms: _128  and  _131
REMARK   55  A    between atoms: _131  and  _132
REMARK   56  A    between atoms: _135  and  _137
REMARK   57  A    between atoms: _137  and  _138
REMARK   58  A    between atoms: _140  and  _142
REMARK   59  A    between atoms: _142  and  _143
REMARK   60  A    between atoms: _145  and  _147
REMARK   61  A    between atoms: _147  and  _148
REMARK   62  A    between atoms: _147  and  _150
REMARK   63  A    between atoms: _150  and  _151
REMARK   64  A    between atoms: _154  and  _156
REMARK   65  A    between atoms: _156  and  _157
REMARK   66  A    between atoms: _159  and  _161
REMARK   67  A    between atoms: _161  and  _162
REMARK   68  A    between atoms: _164  and  _166
REMARK   69  A    between atoms: _166  and  _167
REMARK   70  A    between atoms: _166  and  _169
REMARK   71  A    between atoms: _172  and  _174
REMARK   72  A    between atoms: _174  and  _175
REMARK   73  A    between atoms: _174  and  _177
REMARK   74  A    between atoms: _180  and  _182
REMARK   75  A    between atoms: _182  and  _183
REMARK   76  A    between atoms: _182  and  _185
REMARK   77  A    between atoms: _185  and  _186
REMARK   78  A    between atoms: _190  and  _191
REMARK   79  A    between atoms: _196  and  _198
REMARK   80  A    between atoms: _198  and  _199
REMARK   81  A    between atoms: _198  and  _201
REMARK   82  A    between atoms: _201  and  _202
REMARK   83  A    between atoms: _206  and  _207
REMARK   84  A    between atoms: _212  and  _214
REMARK   85  A    between atoms: _214  and  _215
REMARK   86  A    between atoms: _214  and  _217
REMARK   87  A    between atoms: _217  and  _218
REMARK   88  A    between atoms: _221  and  _223
REMARK   89  A    between atoms: _223  and  _224
REMARK   90  A    between atoms: _223  and  _226
REMARK   91  A    between atoms: _226  and  _227
REMARK   92  A    between atoms: _232  and  _234
REMARK   93  A    between atoms: _234  and  _235
REMARK   94  A    between atoms: _234  and  _237
REMARK   95  A    between atoms: _240  and  _242
REMARK   96  A    between atoms: _242  and  _243
REMARK   97  A    between atoms: _242  and  _245
REMARK   98  A    between atoms: _245  and  _246
REMARK   99  A    between atoms: _249  and  _251
REMARK  100  A    between atoms: _251  and  _252
REMARK  101  A    between atoms: _254  and  _256
REMARK  102  A    between atoms: _256  and  _257
REMARK  103  A    between atoms: _256  and  _259
REMARK  104  A    between atoms: _259  and  _260
REMARK  105  A    between atoms: _260  and  _261
REMARK  106  A    between atoms: _261  and  _262
REMARK  107  A    between atoms: _271  and  _273
REMARK  108  A    between atoms: _273  and  _274
REMARK  109  A    between atoms: _273  and  _276
REMARK  110  A    between atoms: _276  and  _277
REMARK  111  A    between atoms: _282  and  _284
REMARK  112  A    between atoms: _284  and  _285
REMARK  113  A    between atoms: _284  and  _287
REMARK  114  A    between atoms: _287  and  _288
REMARK  115  A    between atoms: _288  and  _289
REMARK  116  A    between atoms: _289  and  _290
REMARK  117  A    between atoms: _299  and  _301
REMARK  118  A    between atoms: _301  and  _302
REMARK  119  A    between atoms: _301  and  _304
REMARK  120  A    between atoms: _304  and  _305
REMARK  121  A    between atoms: _308  and  _310
REMARK  122  A    between atoms: _310  and  _311
REMARK  123  A    between atoms: _310  and  _313
REMARK  124  A    between atoms: _313  and  _314
REMARK  125  A    between atoms: _317  and  _319
REMARK  126  A    between atoms: _319  and  _320
REMARK  127  A    between atoms: _319  and  _322
REMARK  128  A    between atoms: _322  and  _323
REMARK  129  A    between atoms: _326  and  _328
REMARK  130  A    between atoms: _328  and  _329
REMARK  131  A    between atoms: _328  and  _331
REMARK  132  A    between atoms: _331  and  _332
REMARK  133  A    between atoms: _335  and  _337
REMARK  134  A    between atoms: _337  and  _338
REMARK  135  A    between atoms: _340  and  _342
REMARK  136  A    between atoms: _342  and  _343
REMARK  137  A    between atoms: _346  and  _348
REMARK  138  A    between atoms: _348  and  _349
REMARK  139  A    between atoms: _348  and  _351
REMARK  140  A    between atoms: _351  and  _352
REMARK  141  A    between atoms: _355  and  _357
REMARK  142  A    between atoms: _357  and  _358
REMARK  143  A    between atoms: _357  and  _360
REMARK  144  A    between atoms: _360  and  _361
REMARK  145  A    between atoms: _364  and  _366
REMARK  146  A    between atoms: _366  and  _367
REMARK  147  A    between atoms: _366  and  _369
REMARK  148  A    between atoms: _369  and  _370
REMARK  149  A    between atoms: _373  and  _375
REMARK  150  A    between atoms: _375  and  _376
REMARK  151  A    between atoms: _375  and  _378
REMARK  152  A    between atoms: _381  and  _383
REMARK  153  A    between atoms: _383  and  _384
REMARK  154  A    between atoms: _383  and  _386
REMARK  155  A    between atoms: _386  and  _387
REMARK  156  A    between atoms: _387  and  _388
REMARK  157  A    between atoms: _388  and  _389
REMARK  158  A    between atoms: _398  and  _400
REMARK  159  A    between atoms: _400  and  _401
REMARK  160  A    between atoms: _400  and  _403
REMARK  161  A    between atoms: _403  and  _404
REMARK  162  A    between atoms: _407  and  _409
REMARK  163  A    between atoms: _409  and  _410
REMARK  164  A    between atoms: _409  and  _412
REMARK  165  A    between atoms: _412  and  _413
REMARK  166  A    between atoms: _416  and  _418
REMARK  167  A    between atoms: _418  and  _419
REMARK  168  A    between atoms: _421  and  _423
REMARK  169  A    between atoms: _423  and  _424
REMARK  170  A    between atoms: _426  and  _428
REMARK  171  A    between atoms: _428  and  _429
REMARK  172  A    between atoms: _428  and  _431
REMARK  173  A    between atoms: _431  and  _432
REMARK  174  A    between atoms: _435  and  _437
REMARK  175  A    between atoms: _437  and  _438
REMARK  176  A    between atoms: _440  and  _442
REMARK  177  A    between atoms: _442  and  _443
REMARK  178  A    between atoms: _445  and  _447
REMARK  179  A    between atoms: _447  and  _448
REMARK  180  A    between atoms: _447  and  _450
REMARK  181  A    between atoms: _453  and  _455
REMARK  182  A    between atoms: _455  and  _456
REMARK  183  A    between atoms: _455  and  _458
REMARK  184  A    between atoms: _458  and  _459
REMARK  185  A    between atoms: _462  and  _464
REMARK  186  A    between atoms: _464  and  _465
REMARK  187  A    between atoms: _464  and  _467
REMARK  188  A    between atoms: _467  and  _468
REMARK  189  A    between atoms: _472  and  _473
REMARK  190  A    between atoms: _478  and  _480
REMARK  191  A    between atoms: _480  and  _481
REMARK  192  A    between atoms: _480  and  _483
REMARK  193  A    between atoms: _483  and  _484
REMARK  194  A    between atoms: _487  and  _489
REMARK  195  A    between atoms: _489  and  _490
REMARK  196  A    between atoms: _489  and  _492
REMARK  197  A    between atoms: _492  and  _493
REMARK  198  A    between atoms: _498  and  _500
REMARK  199  A    between atoms: _500  and  _501
REMARK  200  A    between atoms: _500  and  _503
REMARK  201  A    between atoms: _506  and  _508
REMARK  202  A    between atoms: _508  and  _509
REMARK  203  A    between atoms: _508  and  _511
REMARK  204  A    between atoms: _511  and  _512
REMARK  205  A    between atoms: _515  and  _517
REMARK  206  A    between atoms: _517  and  _518
REMARK  207  A    between atoms: _520  and  _522
REMARK  208  A    between atoms: _522  and  _523
REMARK  209  A    between atoms: _522  and  _525
REMARK  210  A    between atoms: _525  and  _526
REMARK  211  A    between atoms: _526  and  _527
REMARK  212  A    between atoms: _527  and  _528
REMARK  213  A    between atoms: _537  and  _539
REMARK  214  A    between atoms: _539  and  _540
REMARK  215  A    between atoms: _539  and  _542
REMARK  216  A    between atoms: _542  and  _543
REMARK                            x       y       z     vdW  Elec       q    Type
REMARK                         _______ _______ _______ _____ _____    ______ ____
ROOT
ATOM      1  C   GLY A   5      -9.671  21.208  23.841  0.00  0.00    +0.243 C 
ATOM      2  O   GLY A   5      -8.581  20.676  23.655  0.00  0.00    -0.273 OA
ATOM      3  N   ALA A   6     -10.718  20.985  23.051  0.00  0.00    -0.297 N 
ATOM      4  H   ALA A   6     -11.620  21.458  23.262  0.00  0.00    +0.150 HD
ENDROOT
BRANCH   3   5
ATOM      5  CA  ALA A   6     -10.637  20.086  21.884  0.00  0.00    +0.149 C 
ATOM      6  CB  ALA A   6     -11.885  19.175  21.829  0.00  0.00    +0.031 C 
BRANCH   5   7
ATOM      7  C   ALA A   6     -10.481  20.868  20.585  0.00  0.00    +0.241 C 
ATOM      8  O   ALA A   6     -11.308  21.721  20.278  0.00  0.00    -0.273 OA
ATOM      9  N   ASP A   7      -9.411  20.600  19.830  0.00  0.00    -0.297 N 
ATOM     10  H   ASP A   7      -8.699  19.926  20.176  0.00  0.00    +0.150 HD
BRANCH   9  11
ATOM     11  CA  ASP A   7      -9.223  21.233  18.533  0.00  0.00    +0.160 C 
BRANCH  11  12
ATOM     12  C   ASP A   7     -10.272  20.747  17.548  0.00  0.00    +0.241 C 
ATOM     13  N   ASP A   8     -10.590  19.453  17.672  0.00  0.00    -0.297 N 
ATOM     14  H   ASP A   8     -10.216  18.953  18.504  0.00  0.00    +0.150 HD
ATOM     15  O   ASP A   7     -10.753  21.537  16.718  0.00  0.00    -0.273 OA
BRANCH  13  16
ATOM     16  CA  ASP A   8     -11.421  18.671  16.740  0.00  0.00    +0.160 C 
BRANCH  16  17
ATOM     17  C   ASP A   8     -12.677  18.091  17.404  0.00  0.00    +0.241 C 
ATOM     18  O   ASP A   8     -12.726  17.891  18.616  0.00  0.00    -0.273 OA
ATOM     19  N   THR A   9     -13.698  17.813  16.596  0.00  0.00    -0.295 N 
ATOM     20  H   THR A   9     -13.609  18.017  15.580  0.00  0.00    +0.150 HD
BRANCH  19  21
ATOM     21  CA  THR A   9     -14.933  17.233  17.095  0.00  0.00    +0.176 C 
BRANCH  21  22
ATOM     22  C   THR A   9     -14.777  15.711  17.031  0.00  0.00    +0.243 C 
ATOM     23  N   VAL A  10     -15.099  15.012  18.113  0.00  0.00    -0.298 N 
ATOM     24  H   VAL A  10     -15.553  15.488  18.919  0.00  0.00    +0.150 HD
ATOM     25  O   THR A   9     -14.378  15.174  16.010  0.00  0.00    -0.273 OA
BRANCH  23  26
ATOM     26  CA  VAL A  10     -14.820  13.578  18.180  0.00  0.00    +0.137 C 
BRANCH  26  27
ATOM     27  CB  VAL A  10     -13.585  13.266  19.064  0.00  0.00    +0.026 C 
ATOM     28  CG2 VAL A  10     -13.204  11.806  18.908  0.00  0.00    +0.002 C 
ATOM     29  CG1 VAL A  10     -12.416  14.172  18.706  0.00  0.00    +0.002 C 
ENDBRANCH  26  27
BRANCH  26  30
ATOM     30  C   VAL A  10     -16.003  12.804  18.743  0.00  0.00    +0.227 C 
ATOM     31  O   VAL A  10     -16.536  13.185  19.789  0.00  0.00    -0.286 OA
ENDBRANCH  26  30
ENDBRANCH  23  26
ENDBRANCH  21  22
BRANCH  21  32
ATOM     32  CB  THR A   9     -16.130  17.738  16.256  0.00  0.00    +0.137 C 
ATOM     33  CG2 THR A   9     -17.398  16.954  16.546  0.00  0.00    +0.034 C 
BRANCH  32  34
ATOM     34  OG1 THR A   9     -16.350  19.128  16.564  0.00  0.00    -0.382 OA
ATOM     35  HG1 THR A   9     -15.537  19.647  16.340  0.00  0.00    +0.210 HD
ENDBRANCH  32  34
ENDBRANCH  21  32
ENDBRANCH  19  21
ENDBRANCH  16  17
BRANCH  16  36
ATOM     36  CB  ASP A   8     -10.622  17.469  16.212  0.00  0.00    +0.143 C 
BRANCH  36  37
ATOM     37  CG  ASP A   8      -9.227  17.836  15.720  0.00  0.00    +0.367 C 
ATOM     38  OD2 ASP A   8      -8.224  17.257  16.232  0.00  0.00    -0.246 OA
ATOM     39  OD1 ASP A   8      -9.129  18.672  14.796  0.00  0.00    -0.246 OA
ENDBRANCH  36  37
ENDBRANCH  16  36
ENDBRANCH  13  16
ENDBRANCH  11  12
BRANCH  11  40
ATOM     40  CB  ASP A   7      -7.855  20.885  17.957  0.00  0.00    +0.143 C 
BRANCH  40  41
ATOM     41  CG  ASP A   7      -6.699  21.403  18.802  0.00  0.00    +0.367 C 
ATOM     42  OD2 ASP A   7      -6.896  22.297  19.642  0.00  0.00    -0.246 OA
ATOM     43  OD1 ASP A   7      -5.574  20.933  18.555  0.00  0.00    -0.246 OA
ENDBRANCH  40  41
ENDBRANCH  11  40
ENDBRANCH   9  11
ENDBRANCH   5   7
ENDBRANCH   3   5
BRANCH   1  44
ATOM     44  CA  GLY A   5      -9.861  22.180  24.995  0.00  0.00    +0.176 C 
BRANCH  44  46
ATOM     45  C   THR A   4     -11.454  23.907  24.304  0.00  0.00    +0.243 C 
ATOM     46  N   GLY A   5     -11.199  22.798  25.002  0.00  0.00    -0.295 N 
ATOM     47  H   GLY A   5     -11.959  22.362  25.562  0.00  0.00    +0.150 HD
ATOM     48  O   THR A   4     -10.609  24.493  23.630  0.00  0.00    -0.273 OA
BRANCH  45  49
ATOM     49  CA  THR A   4     -12.888  24.428  24.364  0.00  0.00    +0.176 C 
BRANCH  49  51
ATOM     50  C   ASP A   3     -14.113  22.311  24.158  0.00  0.00    +0.241 C 
ATOM     51  N   THR A   4     -13.830  23.413  24.856  0.00  0.00    -0.295 N 
ATOM     52  H   THR A   4     -14.291  23.558  25.777  0.00  0.00    +0.150 HD
ATOM     53  O   ASP A   3     -13.563  22.026  23.093  0.00  0.00    -0.273 OA
BRANCH  50  54
ATOM     54  CA  ASP A   3     -15.142  21.349  24.766  0.00  0.00    +0.160 C 
BRANCH  54  57
ATOM     55  C   LEU A   2     -17.533  21.724  24.971  0.00  0.00    +0.241 C 
ATOM     56  O   LEU A   2     -17.422  22.037  26.160  0.00  0.00    -0.273 OA
ATOM     57  N   ASP A   3     -16.478  21.532  24.181  0.00  0.00    -0.297 N 
ATOM     58  H   ASP A   3     -16.600  21.512  23.148  0.00  0.00    +0.150 HD
BRANCH  55  59
ATOM     59  CA  LEU A   2     -18.906  21.538  24.328  0.00  0.00    +0.149 C 
BRANCH  59  61
ATOM     60  C   LEU A   1     -19.045  19.123  24.660  0.00  0.00    +0.238 C 
ATOM     61  N   LEU A   2     -19.536  20.343  24.905  0.00  0.00    -0.297 N 
ATOM     62  H   LEU A   2     -20.374  20.447  25.512  0.00  0.00    +0.150 HD
ATOM     63  O   LEU A   1     -18.168  18.911  23.798  0.00  0.00    -0.274 OA
BRANCH  60  64
ATOM     64  CA  LEU A   1     -19.623  17.947  25.481  0.00  0.00    +0.145 C 
BRANCH  64  65
ATOM     65  N   LEU A   1     -20.087  16.953  24.568  0.00  0.00    -0.238 NA
ATOM     66  H   LEU A   1     -19.402  16.266  24.194  0.00  0.00    +0.142 HD
ENDBRANCH  64  65
BRANCH  64  67
ATOM     67  CB  LEU A   1     -18.558  17.275  26.359  0.00  0.00    +0.026 C 
BRANCH  67  68
ATOM     68  CG  LEU A   1     -17.794  17.952  27.491  0.00  0.00    +0.002 C 
ATOM     69  CD2 LEU A   1     -18.719  18.141  28.649  0.00  0.00    +0.000 C 
ATOM     70  CD1 LEU A   1     -16.700  17.007  27.961  0.00  0.00    +0.000 C 
ENDBRANCH  67  68
ENDBRANCH  64  67
ENDBRANCH  60  64
ENDBRANCH  59  61
BRANCH  59  71
ATOM     71  CB  LEU A   2     -19.746  22.783  24.556  0.00  0.00    +0.029 C 
BRANCH  71  72
ATOM     72  CG  LEU A   2     -21.097  22.863  23.847  0.00  0.00    +0.002 C 
ATOM     73  CD2 LEU A   2     -21.807  24.101  24.377  0.00  0.00    +0.000 C 
ATOM     74  CD1 LEU A   2     -20.963  22.883  22.300  0.00  0.00    +0.000 C 
ENDBRANCH  71  72
ENDBRANCH  59  71
ENDBRANCH  55  59
ENDBRANCH  54  57
BRANCH  54  75
ATOM     75  CB  ASP A   3     -14.703  19.911  24.502  0.00  0.00    +0.143 C 
BRANCH  75  76
ATOM     76  CG  ASP A   3     -13.420  19.555  25.208  0.00  0.00    +0.367 C 
ATOM     77  OD2 ASP A   3     -12.793  20.457  25.809  0.00  0.00    -0.246 OA
ATOM     78  OD1 ASP A   3     -13.028  18.379  25.142  0.00  0.00    -0.246 OA
ENDBRANCH  75  76
ENDBRANCH  54  75
ENDBRANCH  50  54
ENDBRANCH  49  51
BRANCH  49  79
ATOM     79  CB  THR A   4     -12.938  25.710  25.185  0.00  0.00    +0.137 C 
ATOM     80  CG2 THR A   4     -14.327  26.368  25.088  0.00  0.00    +0.034 C 
BRANCH  79  81
ATOM     81  OG1 THR A   4     -12.698  25.399  26.557  0.00  0.00    -0.382 OA
ATOM     82  HG1 THR A   4     -11.806  24.980  26.648  0.00  0.00    +0.210 HD
ENDBRANCH  79  81
ENDBRANCH  49  79
ENDBRANCH  45  49
ENDBRANCH  44  46
ENDBRANCH   1  44
TORSDOF 35
REMARK  Name = ../refined-set-2016/3ggu/3ggu_pocket.pdb
REMARK  216 active torsions:
REMARK  status: ('A' for Active; 'I' for Inactive)
REMARK    1  A    between atoms: _1  and  _3
REMARK    2  A    between atoms: _3  and  _4
REMARK    3  A    between atoms: _3  and  _6
REMARK    4  A    between atoms: _6  and  _7
REMARK    5  A    between atoms: _7  and  _8
REMARK    6  A    between atoms: _8  and  _9
REMARK    7  A    between atoms: _18  and  _20
REMARK    8  A    between atoms: _20  and  _21
REMARK    9  A    between atoms: _20  and  _23
REMARK   10  A    between atoms: _23  and  _24
REMARK   11  A    between atoms: _27  and  _29
REMARK   12  A    between atoms: _29  and  _30
REMARK   13  A    between atoms: _29  and  _32
REMARK   14  A    between atoms: _32  and  _33
REMARK   15  A    between atoms: _36  and  _38
REMARK   16  A    between atoms: _38  and  _39
REMARK   17  A    between atoms: _38  and  _41
REMARK   18  A    between atoms: _41  and  _42
REMARK   19  A    between atoms: _45  and  _47
REMARK   20  A    between atoms: _47  and  _48
REMARK   21  A    between atoms: _47  and  _50
REMARK   22  A    between atoms: _50  and  _51
REMARK   23  A    between atoms: _54  and  _56
REMARK   24  A    between atoms: _56  and  _57
REMARK   25  A    between atoms: _59  and  _61
REMARK   26  A    between atoms: _61  and  _62
REMARK   27  A    between atoms: _65  and  _67
REMARK   28  A    between atoms: _67  and  _68
REMARK   29  A    between atoms: _67  and  _70
REMARK   30  A    between atoms: _70  and  _71
REMARK   31  A    between atoms: _74  and  _76
REMARK   32  A    between atoms: _76  and  _77
REMARK   33  A    between atoms: _76  and  _79
REMARK   34  A    between atoms: _79  and  _80
REMARK   35  A    between atoms: _83  and  _85
REMARK   36  A    between atoms: _85  and  _86
REMARK   37  A    between atoms: _85  and  _88
REMARK   38  A    between atoms: _88  and  _89
REMARK   39  A    between atoms: _92  and  _94
REMARK   40  A    between atoms: _94  and  _95
REMARK   41  A    between atoms: _94  and  _97
REMARK   42  A    between atoms: _100  and  _102
REMARK   43  A    between atoms: _102  and  _103
REMARK   44  A    between atoms: _102  and  _105
REMARK   45  A    between atoms: _105  and  _106
REMARK   46  A    between atoms: _106  and  _107
REMARK   47  A    between atoms: _107  and  _108
REMARK   48  A    between atoms: _117  and  _119
REMARK   49  A    between atoms: _119  and  _120
REMARK   50  A    between atoms: _119  and  _122
REMARK   51  A    between atoms: _122  and  _123
REMARK   52  A    between atoms: _126  and  _128
REMARK   53  A    between atoms: _128  and  _129
REMARK   54  A    between atoms: _128  and  _131
REMARK   55  A    between atoms: _131  and  _132
REMARK   56  A    between atoms: _135  and  _137
REMARK   57  A    between atoms: _137  and  _138
REMARK   58  A    between atoms: _140  and  _142
REMARK   59  A    between atoms: _142  and  _143
REMARK   60  A    between atoms: _145  and  _147
REMARK   61  A    between atoms: _147  and  _148
REMARK   62  A    between atoms: _147  and  _150
REMARK   63  A    between atoms: _150  and  _151
REMARK   64  A    between atoms: _154  and  _156
REMARK   65  A    between atoms: _156  and  _157
REMARK   66  A    between atoms: _159  and  _161
REMARK   67  A    between atoms: _161  and  _162
REMARK   68  A    between atoms: _164  and  _166
REMARK   69  A    between atoms: _166  and  _167
REMARK   70  A    between atoms: _166  and  _169
REMARK   71  A    between atoms: _172  and  _174
REMARK   72  A    between atoms: _174  and  _175
REMARK   73  A    between atoms: _174  and  _177
REMARK   74  A    between atoms: _180  and  _182
REMARK   75  A    between atoms: _182  and  _183
REMARK   76  A    between atoms: _182  and  _185
REMARK   77  A    between atoms: _185  and  _186
REMARK   78  A    between atoms: _190  and  _191
REMARK   79  A    between atoms: _196  and  _198
REMARK   80  A    between atoms: _198  and  _199
REMARK   81  A    between atoms: _198  and  _201
REMARK   82  A    between atoms: _201  and  _202
REMARK   83  A    between atoms: _206  and  _207
REMARK   84  A    between atoms: _212  and  _214
REMARK   85  A    between atoms: _214  and  _215
REMARK   86  A    between atoms: _214  and  _217
REMARK   87  A    between atoms: _217  and  _218
REMARK   88  A    between atoms: _221  and  _223
REMARK   89  A    between atoms: _223  and  _224
REMARK   90  A    between atoms: _223  and  _226
REMARK   91  A    between atoms: _226  and  _227
REMARK   92  A    between atoms: _232  and  _234
REMARK   93  A    between atoms: _234  and  _235
REMARK   94  A    between atoms: _234  and  _237
REMARK   95  A    between atoms: _240  and  _242
REMARK   96  A    between atoms: _242  and  _243
REMARK   97  A    between atoms: _242  and  _245
REMARK   98  A    between atoms: _245  and  _246
REMARK   99  A    between atoms: _249  and  _251
REMARK  100  A    between atoms: _251  and  _252
REMARK  101  A    between atoms: _254  and  _256
REMARK  102  A    between atoms: _256  and  _257
REMARK  103  A    between atoms: _256  and  _259
REMARK  104  A    between atoms: _259  and  _260
REMARK  105  A    between atoms: _260  and  _261
REMARK  106  A    between atoms: _261  and  _262
REMARK  107  A    between atoms: _271  and  _273
REMARK  108  A    between atoms: _273  and  _274
REMARK  109  A    between atoms: _273  and  _276
REMARK  110  A    between atoms: _276  and  _277
REMARK  111  A    between atoms: _282  and  _284
REMARK  112  A    between atoms: _284  and  _285
REMARK  113  A    between atoms: _284  and  _287
REMARK  114  A    between atoms: _287  and  _288
REMARK  115  A    between atoms: _288  and  _289
REMARK  116  A    between atoms: _289  and  _290
REMARK  117  A    between atoms: _299  and  _301
REMARK  118  A    between atoms: _301  and  _302
REMARK  119  A    between atoms: _301  and  _304
REMARK  120  A    between atoms: _304  and  _305
REMARK  121  A    between atoms: _308  and  _310
REMARK  122  A    between atoms: _310  and  _311
REMARK  123  A    between atoms: _310  and  _313
REMARK  124  A    between atoms: _313  and  _314
REMARK  125  A    between atoms: _317  and  _319
REMARK  126  A    between atoms: _319  and  _320
REMARK  127  A    between atoms: _319  and  _322
REMARK  128  A    between atoms: _322  and  _323
REMARK  129  A    between atoms: _326  and  _328
REMARK  130  A    between atoms: _328  and  _329
REMARK  131  A    between atoms: _328  and  _331
REMARK  132  A    between atoms: _331  and  _332
REMARK  133  A    between atoms: _335  and  _337
REMARK  134  A    between atoms: _337  and  _338
REMARK  135  A    between atoms: _340  and  _342
REMARK  136  A    between atoms: _342  and  _343
REMARK  137  A    between atoms: _346  and  _348
REMARK  138  A    between atoms: _348  and  _349
REMARK  139  A    between atoms: _348  and  _351
REMARK  140  A    between atoms: _351  and  _352
REMARK  141  A    between atoms: _355  and  _357
REMARK  142  A    between atoms: _357  and  _358
REMARK  143  A    between atoms: _357  and  _360
REMARK  144  A    between atoms: _360  and  _361
REMARK  145  A    between atoms: _364  and  _366
REMARK  146  A    between atoms: _366  and  _367
REMARK  147  A    between atoms: _366  and  _369
REMARK  148  A    between atoms: _369  and  _370
REMARK  149  A    between atoms: _373  and  _375
REMARK  150  A    between atoms: _375  and  _376
REMARK  151  A    between atoms: _375  and  _378
REMARK  152  A    between atoms: _381  and  _383
REMARK  153  A    between atoms: _383  and  _384
REMARK  154  A    between atoms: _383  and  _386
REMARK  155  A    between atoms: _386  and  _387
REMARK  156  A    between atoms: _387  and  _388
REMARK  157  A    between atoms: _388  and  _389
REMARK  158  A    between atoms: _398  and  _400
REMARK  159  A    between atoms: _400  and  _401
REMARK  160  A    between atoms: _400  and  _403
REMARK  161  A    between atoms: _403  and  _404
REMARK  162  A    between atoms: _407  and  _409
REMARK  163  A    between atoms: _409  and  _410
REMARK  164  A    between atoms: _409  and  _412
REMARK  165  A    between atoms: _412  and  _413
REMARK  166  A    between atoms: _416  and  _418
REMARK  167  A    between atoms: _418  and  _419
REMARK  168  A    between atoms: _421  and  _423
REMARK  169  A    between atoms: _423  and  _424
REMARK  170  A    between atoms: _426  and  _428
REMARK  171  A    between atoms: _428  and  _429
REMARK  172  A    between atoms: _428  and  _431
REMARK  173  A    between atoms: _431  and  _432
REMARK  174  A    between atoms: _435  and  _437
REMARK  175  A    between atoms: _437  and  _438
REMARK  176  A    between atoms: _440  and  _442
REMARK  177  A    between atoms: _442  and  _443
REMARK  178  A    between atoms: _445  and  _447
REMARK  179  A    between atoms: _447  and  _448
REMARK  180  A    between atoms: _447  and  _450
REMARK  181  A    between atoms: _453  and  _455
REMARK  182  A    between atoms: _455  and  _456
REMARK  183  A    between atoms: _455  and  _458
REMARK  184  A    between atoms: _458  and  _459
REMARK  185  A    between atoms: _462  and  _464
REMARK  186  A    between atoms: _464  and  _465
REMARK  187  A    between atoms: _464  and  _467
REMARK  188  A    between atoms: _467  and  _468
REMARK  189  A    between atoms: _472  and  _473
REMARK  190  A    between atoms: _478  and  _480
REMARK  191  A    between atoms: _480  and  _481
REMARK  192  A    between atoms: _480  and  _483
REMARK  193  A    between atoms: _483  and  _484
REMARK  194  A    between atoms: _487  and  _489
REMARK  195  A    between atoms: _489  and  _490
REMARK  196  A    between atoms: _489  and  _492
REMARK  197  A    between atoms: _492  and  _493
REMARK  198  A    between atoms: _498  and  _500
REMARK  199  A    between atoms: _500  and  _501
REMARK  200  A    between atoms: _500  and  _503
REMARK  201  A    between atoms: _506  and  _508
REMARK  202  A    between atoms: _508  and  _509
REMARK  203  A    between atoms: _508  and  _511
REMARK  204  A    between atoms: _511  and  _512
REMARK  205  A    between atoms: _515  and  _517
REMARK  206  A    between atoms: _517  and  _518
REMARK  207  A    between atoms: _520  and  _522
REMARK  208  A    between atoms: _522  and  _523
REMARK  209  A    between atoms: _522  and  _525
REMARK  210  A    between atoms: _525  and  _526
REMARK  211  A    between atoms: _526  and  _527
REMARK  212  A    between atoms: _527  and  _528
REMARK  213  A    between atoms: _537  and  _539
REMARK  214  A    between atoms: _539  and  _540
REMARK  215  A    between atoms: _539  and  _542
REMARK  216  A    between atoms: _542  and  _543
REMARK                            x       y       z     vdW  Elec       q    Type
REMARK                         _______ _______ _______ _____ _____    ______ ____
ROOT
ATOM      1  CA  ILE A   3      -5.089  12.114  17.933  0.00  0.00    +0.149 C 
ENDROOT
BRANCH   1   3
ATOM      2  C   LEU A   2      -4.233  10.914  15.994  0.00  0.00    +0.241 C 
ATOM      3  N   ILE A   3      -5.044  10.956  17.047  0.00  0.00    -0.297 N 
ATOM      4  H   ILE A   3      -5.662  10.143  17.244  0.00  0.00    +0.150 HD
ATOM      5  O   LEU A   2      -3.539  11.872  15.627  0.00  0.00    -0.273 OA
BRANCH   2   6
ATOM      6  CA  LEU A   2      -4.171   9.597  15.248  0.00  0.00    +0.149 C 
BRANCH   6   8
ATOM      7  C   ARG A   1      -5.479   9.329  13.230  0.00  0.00    +0.238 C 
ATOM      8  N   LEU A   2      -4.432   9.867  13.843  0.00  0.00    -0.297 N 
ATOM      9  H   LEU A   2      -3.790  10.490  13.312  0.00  0.00    +0.150 HD
ATOM     10  O   ARG A   1      -6.184   8.470  13.759  0.00  0.00    -0.274 OA
BRANCH   7  11
ATOM     11  CA  ARG A   1      -5.762   9.801  11.807  0.00  0.00    +0.145 C 
BRANCH  11  12
ATOM     12  N   ARG A   1      -6.378   8.715  11.073  0.00  0.00    -0.238 NA
ATOM     13  H   ARG A   1      -6.999   8.052  11.580  0.00  0.00    +0.142 HD
ENDBRANCH  11  12
BRANCH  11  14
ATOM     14  CB  ARG A   1      -6.703  11.010  11.796  0.00  0.00    +0.030 C 
BRANCH  14  15
ATOM     15  CG  ARG A   1      -6.073  12.331  12.226  0.00  0.00    +0.045 C 
BRANCH  15  16
ATOM     16  CD  ARG A   1      -7.058  13.482  12.048  0.00  0.00    +0.174 C 
BRANCH  16  17
ATOM     17  NE  ARG A   1      -6.687  14.648  12.851  0.00  0.00    -0.265 N 
ATOM     18  HE  ARG A   1      -5.772  14.625  13.345  0.00  0.00    +0.259 HD
ATOM     19  CZ  ARG A   1      -7.441  15.737  12.992  0.00  0.00    +0.342 C 
ATOM     20  NH2 ARG A   1      -7.013  16.739  13.750  0.00  0.00    -0.292 N 
ATOM     21 HH21 ARG A   1      -6.093  16.672  14.230  0.00  0.00    +0.255 HD
ATOM     22 HH22 ARG A   1      -7.598  17.592  13.864  0.00  0.00    +0.255 HD
ATOM     23  NH1 ARG A   1      -8.618  15.834  12.380  0.00  0.00    -0.292 N 
ATOM     24 HH11 ARG A   1      -9.197  16.690  12.499  0.00  0.00    +0.255 HD
ATOM     25 HH12 ARG A   1      -8.959  15.054  11.783  0.00  0.00    +0.255 HD
ENDBRANCH  16  17
ENDBRANCH  15  16
ENDBRANCH  14  15
ENDBRANCH  11  14
ENDBRANCH   7  11
ENDBRANCH   6   8
BRANCH   6  26
ATOM     26  CB  LEU A   2      -2.791   8.941  15.465  0.00  0.00    +0.029 C 
BRANCH  26  27
ATOM     27  CG  LEU A   2      -2.295   7.782  14.591  0.00  0.00    +0.002 C 
ATOM     28  CD2 LEU A   2      -0.925   7.338  15.048  0.00  0.00    +0.000 C 
ATOM     29  CD1 LEU A   2      -3.238   6.605  14.606  0.00  0.00    +0.000 C 
ENDBRANCH  26  27
ENDBRANCH   6  26
ENDBRANCH   2   6
ENDBRANCH   1   3
BRANCH   1  30
ATOM     30  C   ILE A   3      -4.593  11.781  19.345  0.00  0.00    +0.241 C 
ATOM     31  N   GLY A   4      -4.052  12.779  20.027  0.00  0.00    -0.295 N 
ATOM     32  H   GLY A   4      -4.063  13.737  19.621  0.00  0.00    +0.150 HD
ATOM     33  O   ILE A   3      -4.703  10.637  19.802  0.00  0.00    -0.273 OA
BRANCH  31  34
ATOM     34  CA  GLY A   4      -3.443  12.566  21.331  0.00  0.00    +0.176 C 
BRANCH  34  35
ATOM     35  C   GLY A   4      -4.163  13.353  22.399  0.00  0.00    +0.243 C 
ATOM     36  N   GLY A   5      -4.453  12.702  23.517  0.00  0.00    -0.295 N 
ATOM     37  H   GLY A   5      -4.261  11.682  23.581  0.00  0.00    +0.150 HD
ATOM     38  O   GLY A   4      -4.449  14.538  22.221  0.00  0.00    -0.273 OA
BRANCH  36  39
ATOM     39  CA  GLY A   5      -5.039  13.398  24.659  0.00  0.00    +0.176 C 
BRANCH  39  40
ATOM     40  C   GLY A   5      -4.301  13.040  25.923  0.00  0.00    +0.243 C 
ATOM     41  N   ILE A   6      -4.972  13.223  27.056  0.00  0.00    -0.297 N 
ATOM     42  H   ILE A   6      -5.960  13.543  27.007  0.00  0.00    +0.150 HD
ATOM     43  O   GLY A   5      -3.153  12.585  25.881  0.00  0.00    -0.273 OA
BRANCH  41  44
ATOM     44  CA  ILE A   6      -4.371  12.991  28.368  0.00  0.00    +0.149 C 
BRANCH  44  45
ATOM     45  C   ILE A   6      -3.753  11.606  28.585  0.00  0.00    +0.241 C 
ATOM     46  O   ILE A   6      -2.636  11.511  29.069  0.00  0.00    -0.273 OA
ATOM     47  N   GLY A   7      -4.454  10.539  28.216  0.00  0.00    -0.295 N 
ATOM     48  H   GLY A   7      -5.331  10.657  27.670  0.00  0.00    +0.150 HD
BRANCH  47  49
ATOM     49  CA  GLY A   7      -3.990   9.191  28.579  0.00  0.00    +0.176 C 
BRANCH  49  50
ATOM     50  C   GLY A   7      -3.203   8.431  27.525  0.00  0.00    +0.243 C 
ATOM     51  O   GLY A   7      -2.896   7.243  27.696  0.00  0.00    -0.273 OA
ATOM     52  N   GLY A   8      -2.861   9.135  26.450  0.00  0.00    -0.296 N 
ATOM     53  H   GLY A   8      -3.074  10.153  26.443  0.00  0.00    +0.150 HD
BRANCH  52  54
ATOM     54  CA  GLY A   8      -2.202   8.559  25.275  0.00  0.00    +0.163 C 
BRANCH  54  55
ATOM     55  C   GLY A   8      -2.888   8.908  23.965  0.00  0.00    +0.229 C 
ATOM     56  O   GLY A   8      -3.549   9.947  23.868  0.00  0.00    -0.286 OA
ENDBRANCH  54  55
ENDBRANCH  52  54
ENDBRANCH  49  50
ENDBRANCH  47  49
ENDBRANCH  44  45
BRANCH  44  57
ATOM     57  CB  ILE A   6      -5.333  13.394  29.529  0.00  0.00    +0.027 C 
ATOM     58  CG2 ILE A   6      -5.616  12.212  30.475  0.00  0.00    +0.002 C 
BRANCH  57  59
ATOM     59  CG1 ILE A   6      -4.701  14.537  30.348  0.00  0.00    +0.002 C 
ATOM     60  CD1 ILE A   6      -5.715  15.462  31.045  0.00  0.00    +0.000 C 
ENDBRANCH  57  59
ENDBRANCH  44  57
ENDBRANCH  41  44
ENDBRANCH  39  40
ENDBRANCH  36  39
ENDBRANCH  34  35
ENDBRANCH  31  34
ENDBRANCH   1  30
BRANCH   1  61
ATOM     61  CB  ILE A   3      -6.496  12.775  17.951  0.00  0.00    +0.027 C 
ATOM     62  CG2 ILE A   3      -6.787  13.374  16.562  0.00  0.00    +0.002 C 
BRANCH  61  63
ATOM     63  CG1 ILE A   3      -7.556  11.760  18.374  0.00  0.00    +0.002 C 
ATOM     64  CD1 ILE A   3      -8.887  12.349  18.776  0.00  0.00    +0.000 C 
ENDBRANCH  61  63
ENDBRANCH   1  61
TORSDOF 26
REMARK  Name = ../refined-set-2016/3ggu/3ggu_pocket.pdb
REMARK  216 active torsions:
REMARK  status: ('A' for Active; 'I' for Inactive)
REMARK    1  A    between atoms: _1  and  _3
REMARK    2  A    between atoms: _3  and  _4
REMARK    3  A    between atoms: _3  and  _6
REMARK    4  A    between atoms: _6  and  _7
REMARK    5  A    between atoms: _7  and  _8
REMARK    6  A    between atoms: _8  and  _9
REMARK    7  A    between atoms: _18  and  _20
REMARK    8  A    between atoms: _20  and  _21
REMARK    9  A    between atoms: _20  and  _23
REMARK   10  A    between atoms: _23  and  _24
REMARK   11  A    between atoms: _27  and  _29
REMARK   12  A    between atoms: _29  and  _30
REMARK   13  A    between atoms: _29  and  _32
REMARK   14  A    between atoms: _32  and  _33
REMARK   15  A    between atoms: _36  and  _38
REMARK   16  A    between atoms: _38  and  _39
REMARK   17  A    between atoms: _38  and  _41
REMARK   18  A    between atoms: _41  and  _42
REMARK   19  A    between atoms: _45  and  _47
REMARK   20  A    between atoms: _47  and  _48
REMARK   21  A    between atoms: _47  and  _50
REMARK   22  A    between atoms: _50  and  _51
REMARK   23  A    between atoms: _54  and  _56
REMARK   24  A    between atoms: _56  and  _57
REMARK   25  A    between atoms: _59  and  _61
REMARK   26  A    between atoms: _61  and  _62
REMARK   27  A    between atoms: _65  and  _67
REMARK   28  A    between atoms: _67  and  _68
REMARK   29  A    between atoms: _67  and  _70
REMARK   30  A    between atoms: _70  and  _71
REMARK   31  A    between atoms: _74  and  _76
REMARK   32  A    between atoms: _76  and  _77
REMARK   33  A    between atoms: _76  and  _79
REMARK   34  A    between atoms: _79  and  _80
REMARK   35  A    between atoms: _83  and  _85
REMARK   36  A    between atoms: _85  and  _86
REMARK   37  A    between atoms: _85  and  _88
REMARK   38  A    between atoms: _88  and  _89
REMARK   39  A    between atoms: _92  and  _94
REMARK   40  A    between atoms: _94  and  _95
REMARK   41  A    between atoms: _94  and  _97
REMARK   42  A    between atoms: _100  and  _102
REMARK   43  A    between atoms: _102  and  _103
REMARK   44  A    between atoms: _102  and  _105
REMARK   45  A    between atoms: _105  and  _106
REMARK   46  A    between atoms: _106  and  _107
REMARK   47  A    between atoms: _107  and  _108
REMARK   48  A    between atoms: _117  and  _119
REMARK   49  A    between atoms: _119  and  _120
REMARK   50  A    between atoms: _119  and  _122
REMARK   51  A    between atoms: _122  and  _123
REMARK   52  A    between atoms: _126  and  _128
REMARK   53  A    between atoms: _128  and  _129
REMARK   54  A    between atoms: _128  and  _131
REMARK   55  A    between atoms: _131  and  _132
REMARK   56  A    between atoms: _135  and  _137
REMARK   57  A    between atoms: _137  and  _138
REMARK   58  A    between atoms: _140  and  _142
REMARK   59  A    between atoms: _142  and  _143
REMARK   60  A    between atoms: _145  and  _147
REMARK   61  A    between atoms: _147  and  _148
REMARK   62  A    between atoms: _147  and  _150
REMARK   63  A    between atoms: _150  and  _151
REMARK   64  A    between atoms: _154  and  _156
REMARK   65  A    between atoms: _156  and  _157
REMARK   66  A    between atoms: _159  and  _161
REMARK   67  A    between atoms: _161  and  _162
REMARK   68  A    between atoms: _164  and  _166
REMARK   69  A    between atoms: _166  and  _167
REMARK   70  A    between atoms: _166  and  _169
REMARK   71  A    between atoms: _172  and  _174
REMARK   72  A    between atoms: _174  and  _175
REMARK   73  A    between atoms: _174  and  _177
REMARK   74  A    between atoms: _180  and  _182
REMARK   75  A    between atoms: _182  and  _183
REMARK   76  A    between atoms: _182  and  _185
REMARK   77  A    between atoms: _185  and  _186
REMARK   78  A    between atoms: _190  and  _191
REMARK   79  A    between atoms: _196  and  _198
REMARK   80  A    between atoms: _198  and  _199
REMARK   81  A    between atoms: _198  and  _201
REMARK   82  A    between atoms: _201  and  _202
REMARK   83  A    between atoms: _206  and  _207
REMARK   84  A    between atoms: _212  and  _214
REMARK   85  A    between atoms: _214  and  _215
REMARK   86  A    between atoms: _214  and  _217
REMARK   87  A    between atoms: _217  and  _218
REMARK   88  A    between atoms: _221  and  _223
REMARK   89  A    between atoms: _223  and  _224
REMARK   90  A    between atoms: _223  and  _226
REMARK   91  A    between atoms: _226  and  _227
REMARK   92  A    between atoms: _232  and  _234
REMARK   93  A    between atoms: _234  and  _235
REMARK   94  A    between atoms: _234  and  _237
REMARK   95  A    between atoms: _240  and  _242
REMARK   96  A    between atoms: _242  and  _243
REMARK   97  A    between atoms: _242  and  _245
REMARK   98  A    between atoms: _245  and  _246
REMARK   99  A    between atoms: _249  and  _251
REMARK  100  A    between atoms: _251  and  _252
REMARK  101  A    between atoms: _254  and  _256
REMARK  102  A    between atoms: _256  and  _257
REMARK  103  A    between atoms: _256  and  _259
REMARK  104  A    between atoms: _259  and  _260
REMARK  105  A    between atoms: _260  and  _261
REMARK  106  A    between atoms: _261  and  _262
REMARK  107  A    between atoms: _271  and  _273
REMARK  108  A    between atoms: _273  and  _274
REMARK  109  A    between atoms: _273  and  _276
REMARK  110  A    between atoms: _276  and  _277
REMARK  111  A    between atoms: _282  and  _284
REMARK  112  A    between atoms: _284  and  _285
REMARK  113  A    between atoms: _284  and  _287
REMARK  114  A    between atoms: _287  and  _288
REMARK  115  A    between atoms: _288  and  _289
REMARK  116  A    between atoms: _289  and  _290
REMARK  117  A    between atoms: _299  and  _301
REMARK  118  A    between atoms: _301  and  _302
REMARK  119  A    between atoms: _301  and  _304
REMARK  120  A    between atoms: _304  and  _305
REMARK  121  A    between atoms: _308  and  _310
REMARK  122  A    between atoms: _310  and  _311
REMARK  123  A    between atoms: _310  and  _313
REMARK  124  A    between atoms: _313  and  _314
REMARK  125  A    between atoms: _317  and  _319
REMARK  126  A    between atoms: _319  and  _320
REMARK  127  A    between atoms: _319  and  _322
REMARK  128  A    between atoms: _322  and  _323
REMARK  129  A    between atoms: _326  and  _328
REMARK  130  A    between atoms: _328  and  _329
REMARK  131  A    between atoms: _328  and  _331
REMARK  132  A    between atoms: _331  and  _332
REMARK  133  A    between atoms: _335  and  _337
REMARK  134  A    between atoms: _337  and  _338
REMARK  135  A    between atoms: _340  and  _342
REMARK  136  A    between atoms: _342  and  _343
REMARK  137  A    between atoms: _346  and  _348
REMARK  138  A    between atoms: _348  and  _349
REMARK  139  A    between atoms: _348  and  _351
REMARK  140  A    between atoms: _351  and  _352
REMARK  141  A    between atoms: _355  and  _357
REMARK  142  A    between atoms: _357  and  _358
REMARK  143  A    between atoms: _357  and  _360
REMARK  144  A    between atoms: _360  and  _361
REMARK  145  A    between atoms: _364  and  _366
REMARK  146  A    between atoms: _366  and  _367
REMARK  147  A    between atoms: _366  and  _369
REMARK  148  A    between atoms: _369  and  _370
REMARK  149  A    between atoms: _373  and  _375
REMARK  150  A    between atoms: _375  and  _376
REMARK  151  A    between atoms: _375  and  _378
REMARK  152  A    between atoms: _381  and  _383
REMARK  153  A    between atoms: _383  and  _384
REMARK  154  A    between atoms: _383  and  _386
REMARK  155  A    between atoms: _386  and  _387
REMARK  156  A    between atoms: _387  and  _388
REMARK  157  A    between atoms: _388  and  _389
REMARK  158  A    between atoms: _398  and  _400
REMARK  159  A    between atoms: _400  and  _401
REMARK  160  A    between atoms: _400  and  _403
REMARK  161  A    between atoms: _403  and  _404
REMARK  162  A    between atoms: _407  and  _409
REMARK  163  A    between atoms: _409  and  _410
REMARK  164  A    between atoms: _409  and  _412
REMARK  165  A    between atoms: _412  and  _413
REMARK  166  A    between atoms: _416  and  _418
REMARK  167  A    between atoms: _418  and  _419
REMARK  168  A    between atoms: _421  and  _423
REMARK  169  A    between atoms: _423  and  _424
REMARK  170  A    between atoms: _426  and  _428
REMARK  171  A    between atoms: _428  and  _429
REMARK  172  A    between atoms: _428  and  _431
REMARK  173  A    between atoms: _431  and  _432
REMARK  174  A    between atoms: _435  and  _437
REMARK  175  A    between atoms: _437  and  _438
REMARK  176  A    between atoms: _440  and  _442
REMARK  177  A    between atoms: _442  and  _443
REMARK  178  A    between atoms: _445  and  _447
REMARK  179  A    between atoms: _447  and  _448
REMARK  180  A    between atoms: _447  and  _450
REMARK  181  A    between atoms: _453  and  _455
REMARK  182  A    between atoms: _455  and  _456
REMARK  183  A    between atoms: _455  and  _458
REMARK  184  A    between atoms: _458  and  _459
REMARK  185  A    between atoms: _462  and  _464
REMARK  186  A    between atoms: _464  and  _465
REMARK  187  A    between atoms: _464  and  _467
REMARK  188  A    between atoms: _467  and  _468
REMARK  189  A    between atoms: _472  and  _473
REMARK  190  A    between atoms: _478  and  _480
REMARK  191  A    between atoms: _480  and  _481
REMARK  192  A    between atoms: _480  and  _483
REMARK  193  A    between atoms: _483  and  _484
REMARK  194  A    between atoms: _487  and  _489
REMARK  195  A    between atoms: _489  and  _490
REMARK  196  A    between atoms: _489  and  _492
REMARK  197  A    between atoms: _492  and  _493
REMARK  198  A    between atoms: _498  and  _500
REMARK  199  A    between atoms: _500  and  _501
REMARK  200  A    between atoms: _500  and  _503
REMARK  201  A    between atoms: _506  and  _508
REMARK  202  A    between atoms: _508  and  _509
REMARK  203  A    between atoms: _508  and  _511
REMARK  204  A    between atoms: _511  and  _512
REMARK  205  A    between atoms: _515  and  _517
REMARK  206  A    between atoms: _517  and  _518
REMARK  207  A    between atoms: _520  and  _522
REMARK  208  A    between atoms: _522  and  _523
REMARK  209  A    between atoms: _522  and  _525
REMARK  210  A    between atoms: _525  and  _526
REMARK  211  A    between atoms: _526  and  _527
REMARK  212  A    between atoms: _527  and  _528
REMARK  213  A    between atoms: _537  and  _539
REMARK  214  A    between atoms: _539  and  _540
REMARK  215  A    between atoms: _539  and  _542
REMARK  216  A    between atoms: _542  and  _543
REMARK                            x       y       z     vdW  Elec       q    Type
REMARK                         _______ _______ _______ _____ _____    ______ ____
ROOT
ATOM      1  CA  VAL A   1      -6.229   6.905  19.706  0.00  0.00    +0.133 C 
ENDROOT
BRANCH   1   2
ATOM      2  CB  VAL A   1      -7.675   7.052  20.285  0.00  0.00    +0.023 C 
ATOM      3  CG2 VAL A   1      -7.698   6.734  21.777  0.00  0.00    +0.002 C 
ATOM      4  CG1 VAL A   1      -8.270   8.435  20.025  0.00  0.00    +0.002 C 
ENDBRANCH   1   2
BRANCH   1   5
ATOM      5  N   VAL A   1      -5.246   7.778  20.351  0.00  0.00    -0.239 NA
ATOM      6  H   VAL A   1      -5.278   8.800  20.159  0.00  0.00    +0.142 HD
ENDBRANCH   1   5
BRANCH   1   7
ATOM      7  C   VAL A   1      -6.252   7.115  18.193  0.00  0.00    +0.224 C 
ATOM      8  O   VAL A   1      -6.063   8.234  17.697  0.00  0.00    -0.287 OA
ENDBRANCH   1   7
TORSDOF 3
REMARK  Name = ../refined-set-2016/3ggu/3ggu_pocket.pdb
REMARK  216 active torsions:
REMARK  status: ('A' for Active; 'I' for Inactive)
REMARK    1  A    between atoms: _1  and  _3
REMARK    2  A    between atoms: _3  and  _4
REMARK    3  A    between atoms: _3  and  _6
REMARK    4  A    between atoms: _6  and  _7
REMARK    5  A    between atoms: _7  and  _8
REMARK    6  A    between atoms: _8  and  _9
REMARK    7  A    between atoms: _18  and  _20
REMARK    8  A    between atoms: _20  and  _21
REMARK    9  A    between atoms: _20  and  _23
REMARK   10  A    between atoms: _23  and  _24
REMARK   11  A    between atoms: _27  and  _29
REMARK   12  A    between atoms: _29  and  _30
REMARK   13  A    between atoms: _29  and  _32
REMARK   14  A    between atoms: _32  and  _33
REMARK   15  A    between atoms: _36  and  _38
REMARK   16  A    between atoms: _38  and  _39
REMARK   17  A    between atoms: _38  and  _41
REMARK   18  A    between atoms: _41  and  _42
REMARK   19  A    between atoms: _45  and  _47
REMARK   20  A    between atoms: _47  and  _48
REMARK   21  A    between atoms: _47  and  _50
REMARK   22  A    between atoms: _50  and  _51
REMARK   23  A    between atoms: _54  and  _56
REMARK   24  A    between atoms: _56  and  _57
REMARK   25  A    between atoms: _59  and  _61
REMARK   26  A    between atoms: _61  and  _62
REMARK   27  A    between atoms: _65  and  _67
REMARK   28  A    between atoms: _67  and  _68
REMARK   29  A    between atoms: _67  and  _70
REMARK   30  A    between atoms: _70  and  _71
REMARK   31  A    between atoms: _74  and  _76
REMARK   32  A    between atoms: _76  and  _77
REMARK   33  A    between atoms: _76  and  _79
REMARK   34  A    between atoms: _79  and  _80
REMARK   35  A    between atoms: _83  and  _85
REMARK   36  A    between atoms: _85  and  _86
REMARK   37  A    between atoms: _85  and  _88
REMARK   38  A    between atoms: _88  and  _89
REMARK   39  A    between atoms: _92  and  _94
REMARK   40  A    between atoms: _94  and  _95
REMARK   41  A    between atoms: _94  and  _97
REMARK   42  A    between atoms: _100  and  _102
REMARK   43  A    between atoms: _102  and  _103
REMARK   44  A    between atoms: _102  and  _105
REMARK   45  A    between atoms: _105  and  _106
REMARK   46  A    between atoms: _106  and  _107
REMARK   47  A    between atoms: _107  and  _108
REMARK   48  A    between atoms: _117  and  _119
REMARK   49  A    between atoms: _119  and  _120
REMARK   50  A    between atoms: _119  and  _122
REMARK   51  A    between atoms: _122  and  _123
REMARK   52  A    between atoms: _126  and  _128
REMARK   53  A    between atoms: _128  and  _129
REMARK   54  A    between atoms: _128  and  _131
REMARK   55  A    between atoms: _131  and  _132
REMARK   56  A    between atoms: _135  and  _137
REMARK   57  A    between atoms: _137  and  _138
REMARK   58  A    between atoms: _140  and  _142
REMARK   59  A    between atoms: _142  and  _143
REMARK   60  A    between atoms: _145  and  _147
REMARK   61  A    between atoms: _147  and  _148
REMARK   62  A    between atoms: _147  and  _150
REMARK   63  A    between atoms: _150  and  _151
REMARK   64  A    between atoms: _154  and  _156
REMARK   65  A    between atoms: _156  and  _157
REMARK   66  A    between atoms: _159  and  _161
REMARK   67  A    between atoms: _161  and  _162
REMARK   68  A    between atoms: _164  and  _166
REMARK   69  A    between atoms: _166  and  _167
REMARK   70  A    between atoms: _166  and  _169
REMARK   71  A    between atoms: _172  and  _174
REMARK   72  A    between atoms: _174  and  _175
REMARK   73  A    between atoms: _174  and  _177
REMARK   74  A    between atoms: _180  and  _182
REMARK   75  A    between atoms: _182  and  _183
REMARK   76  A    between atoms: _182  and  _185
REMARK   77  A    between atoms: _185  and  _186
REMARK   78  A    between atoms: _190  and  _191
REMARK   79  A    between atoms: _196  and  _198
REMARK   80  A    between atoms: _198  and  _199
REMARK   81  A    between atoms: _198  and  _201
REMARK   82  A    between atoms: _201  and  _202
REMARK   83  A    between atoms: _206  and  _207
REMARK   84  A    between atoms: _212  and  _214
REMARK   85  A    between atoms: _214  and  _215
REMARK   86  A    between atoms: _214  and  _217
REMARK   87  A    between atoms: _217  and  _218
REMARK   88  A    between atoms: _221  and  _223
REMARK   89  A    between atoms: _223  and  _224
REMARK   90  A    between atoms: _223  and  _226
REMARK   91  A    between atoms: _226  and  _227
REMARK   92  A    between atoms: _232  and  _234
REMARK   93  A    between atoms: _234  and  _235
REMARK   94  A    between atoms: _234  and  _237
REMARK   95  A    between atoms: _240  and  _242
REMARK   96  A    between atoms: _242  and  _243
REMARK   97  A    between atoms: _242  and  _245
REMARK   98  A    between atoms: _245  and  _246
REMARK   99  A    between atoms: _249  and  _251
REMARK  100  A    between atoms: _251  and  _252
REMARK  101  A    between atoms: _254  and  _256
REMARK  102  A    between atoms: _256  and  _257
REMARK  103  A    between atoms: _256  and  _259
REMARK  104  A    between atoms: _259  and  _260
REMARK  105  A    between atoms: _260  and  _261
REMARK  106  A    between atoms: _261  and  _262
REMARK  107  A    between atoms: _271  and  _273
REMARK  108  A    between atoms: _273  and  _274
REMARK  109  A    between atoms: _273  and  _276
REMARK  110  A    between atoms: _276  and  _277
REMARK  111  A    between atoms: _282  and  _284
REMARK  112  A    between atoms: _284  and  _285
REMARK  113  A    between atoms: _284  and  _287
REMARK  114  A    between atoms: _287  and  _288
REMARK  115  A    between atoms: _288  and  _289
REMARK  116  A    between atoms: _289  and  _290
REMARK  117  A    between atoms: _299  and  _301
REMARK  118  A    between atoms: _301  and  _302
REMARK  119  A    between atoms: _301  and  _304
REMARK  120  A    between atoms: _304  and  _305
REMARK  121  A    between atoms: _308  and  _310
REMARK  122  A    between atoms: _310  and  _311
REMARK  123  A    between atoms: _310  and  _313
REMARK  124  A    between atoms: _313  and  _314
REMARK  125  A    between atoms: _317  and  _319
REMARK  126  A    between atoms: _319  and  _320
REMARK  127  A    between atoms: _319  and  _322
REMARK  128  A    between atoms: _322  and  _323
REMARK  129  A    between atoms: _326  and  _328
REMARK  130  A    between atoms: _328  and  _329
REMARK  131  A    between atoms: _328  and  _331
REMARK  132  A    between atoms: _331  and  _332
REMARK  133  A    between atoms: _335  and  _337
REMARK  134  A    between atoms: _337  and  _338
REMARK  135  A    between atoms: _340  and  _342
REMARK  136  A    between atoms: _342  and  _343
REMARK  137  A    between atoms: _346  and  _348
REMARK  138  A    between atoms: _348  and  _349
REMARK  139  A    between atoms: _348  and  _351
REMARK  140  A    between atoms: _351  and  _352
REMARK  141  A    between atoms: _355  and  _357
REMARK  142  A    between atoms: _357  and  _358
REMARK  143  A    between atoms: _357  and  _360
REMARK  144  A    between atoms: _360  and  _361
REMARK  145  A    between atoms: _364  and  _366
REMARK  146  A    between atoms: _366  and  _367
REMARK  147  A    between atoms: _366  and  _369
REMARK  148  A    between atoms: _369  and  _370
REMARK  149  A    between atoms: _373  and  _375
REMARK  150  A    between atoms: _375  and  _376
REMARK  151  A    between atoms: _375  and  _378
REMARK  152  A    between atoms: _381  and  _383
REMARK  153  A    between atoms: _383  and  _384
REMARK  154  A    between atoms: _383  and  _386
REMARK  155  A    between atoms: _386  and  _387
REMARK  156  A    between atoms: _387  and  _388
REMARK  157  A    between atoms: _388  and  _389
REMARK  158  A    between atoms: _398  and  _400
REMARK  159  A    between atoms: _400  and  _401
REMARK  160  A    between atoms: _400  and  _403
REMARK  161  A    between atoms: _403  and  _404
REMARK  162  A    between atoms: _407  and  _409
REMARK  163  A    between atoms: _409  and  _410
REMARK  164  A    between atoms: _409  and  _412
REMARK  165  A    between atoms: _412  and  _413
REMARK  166  A    between atoms: _416  and  _418
REMARK  167  A    between atoms: _418  and  _419
REMARK  168  A    between atoms: _421  and  _423
REMARK  169  A    between atoms: _423  and  _424
REMARK  170  A    between atoms: _426  and  _428
REMARK  171  A    between atoms: _428  and  _429
REMARK  172  A    between atoms: _428  and  _431
REMARK  173  A    between atoms: _431  and  _432
REMARK  174  A    between atoms: _435  and  _437
REMARK  175  A    between atoms: _437  and  _438
REMARK  176  A    between atoms: _440  and  _442
REMARK  177  A    between atoms: _442  and  _443
REMARK  178  A    between atoms: _445  and  _447
REMARK  179  A    between atoms: _447  and  _448
REMARK  180  A    between atoms: _447  and  _450
REMARK  181  A    between atoms: _453  and  _455
REMARK  182  A    between atoms: _455  and  _456
REMARK  183  A    between atoms: _455  and  _458
REMARK  184  A    between atoms: _458  and  _459
REMARK  185  A    between atoms: _462  and  _464
REMARK  186  A    between atoms: _464  and  _465
REMARK  187  A    between atoms: _464  and  _467
REMARK  188  A    between atoms: _467  and  _468
REMARK  189  A    between atoms: _472  and  _473
REMARK  190  A    between atoms: _478  and  _480
REMARK  191  A    between atoms: _480  and  _481
REMARK  192  A    between atoms: _480  and  _483
REMARK  193  A    between atoms: _483  and  _484
REMARK  194  A    between atoms: _487  and  _489
REMARK  195  A    between atoms: _489  and  _490
REMARK  196  A    between atoms: _489  and  _492
REMARK  197  A    between atoms: _492  and  _493
REMARK  198  A    between atoms: _498  and  _500
REMARK  199  A    between atoms: _500  and  _501
REMARK  200  A    between atoms: _500  and  _503
REMARK  201  A    between atoms: _506  and  _508
REMARK  202  A    between atoms: _508  and  _509
REMARK  203  A    between atoms: _508  and  _511
REMARK  204  A    between atoms: _511  and  _512
REMARK  205  A    between atoms: _515  and  _517
REMARK  206  A    between atoms: _517  and  _518
REMARK  207  A    between atoms: _520  and  _522
REMARK  208  A    between atoms: _522  and  _523
REMARK  209  A    between atoms: _522  and  _525
REMARK  210  A    between atoms: _525  and  _526
REMARK  211  A    between atoms: _526  and  _527
REMARK  212  A    between atoms: _527  and  _528
REMARK  213  A    between atoms: _537  and  _539
REMARK  214  A    between atoms: _539  and  _540
REMARK  215  A    between atoms: _539  and  _542
REMARK  216  A    between atoms: _542  and  _543
REMARK                            x       y       z     vdW  Elec       q    Type
REMARK                         _______ _______ _______ _____ _____    ______ ____
ROOT
ATOM      1  CA  VAL A   1      -9.676   7.782  14.493  0.00  0.00    +0.133 C 
ENDROOT
BRANCH   1   2
ATOM      2  CB  VAL A   1     -10.025   9.189  15.051  0.00  0.00    +0.023 C 
ATOM      3  CG2 VAL A   1     -10.096   9.197  16.610  0.00  0.00    +0.002 C 
ATOM      4  CG1 VAL A   1      -9.031  10.228  14.538  0.00  0.00    +0.002 C 
ENDBRANCH   1   2
BRANCH   1   5
ATOM      5  N   VAL A   1      -8.316   7.351  14.853  0.00  0.00    -0.239 NA
ATOM      6  H   VAL A   1      -7.502   7.821  14.409  0.00  0.00    +0.142 HD
ENDBRANCH   1   5
BRANCH   1   7
ATOM      7  C   VAL A   1      -9.847   7.804  12.978  0.00  0.00    +0.224 C 
ATOM      8  O   VAL A   1      -8.863   7.759  12.233  0.00  0.00    -0.287 OA
ENDBRANCH   1   7
TORSDOF 3
REMARK  Name = ../refined-set-2016/3ggu/3ggu_pocket.pdb
REMARK  216 active torsions:
REMARK  status: ('A' for Active; 'I' for Inactive)
REMARK    1  A    between atoms: _1  and  _3
REMARK    2  A    between atoms: _3  and  _4
REMARK    3  A    between atoms: _3  and  _6
REMARK    4  A    between atoms: _6  and  _7
REMARK    5  A    between atoms: _7  and  _8
REMARK    6  A    between atoms: _8  and  _9
REMARK    7  A    between atoms: _18  and  _20
REMARK    8  A    between atoms: _20  and  _21
REMARK    9  A    between atoms: _20  and  _23
REMARK   10  A    between atoms: _23  and  _24
REMARK   11  A    between atoms: _27  and  _29
REMARK   12  A    between atoms: _29  and  _30
REMARK   13  A    between atoms: _29  and  _32
REMARK   14  A    between atoms: _32  and  _33
REMARK   15  A    between atoms: _36  and  _38
REMARK   16  A    between atoms: _38  and  _39
REMARK   17  A    between atoms: _38  and  _41
REMARK   18  A    between atoms: _41  and  _42
REMARK   19  A    between atoms: _45  and  _47
REMARK   20  A    between atoms: _47  and  _48
REMARK   21  A    between atoms: _47  and  _50
REMARK   22  A    between atoms: _50  and  _51
REMARK   23  A    between atoms: _54  and  _56
REMARK   24  A    between atoms: _56  and  _57
REMARK   25  A    between atoms: _59  and  _61
REMARK   26  A    between atoms: _61  and  _62
REMARK   27  A    between atoms: _65  and  _67
REMARK   28  A    between atoms: _67  and  _68
REMARK   29  A    between atoms: _67  and  _70
REMARK   30  A    between atoms: _70  and  _71
REMARK   31  A    between atoms: _74  and  _76
REMARK   32  A    between atoms: _76  and  _77
REMARK   33  A    between atoms: _76  and  _79
REMARK   34  A    between atoms: _79  and  _80
REMARK   35  A    between atoms: _83  and  _85
REMARK   36  A    between atoms: _85  and  _86
REMARK   37  A    between atoms: _85  and  _88
REMARK   38  A    between atoms: _88  and  _89
REMARK   39  A    between atoms: _92  and  _94
REMARK   40  A    between atoms: _94  and  _95
REMARK   41  A    between atoms: _94  and  _97
REMARK   42  A    between atoms: _100  and  _102
REMARK   43  A    between atoms: _102  and  _103
REMARK   44  A    between atoms: _102  and  _105
REMARK   45  A    between atoms: _105  and  _106
REMARK   46  A    between atoms: _106  and  _107
REMARK   47  A    between atoms: _107  and  _108
REMARK   48  A    between atoms: _117  and  _119
REMARK   49  A    between atoms: _119  and  _120
REMARK   50  A    between atoms: _119  and  _122
REMARK   51  A    between atoms: _122  and  _123
REMARK   52  A    between atoms: _126  and  _128
REMARK   53  A    between atoms: _128  and  _129
REMARK   54  A    between atoms: _128  and  _131
REMARK   55  A    between atoms: _131  and  _132
REMARK   56  A    between atoms: _135  and  _137
REMARK   57  A    between atoms: _137  and  _138
REMARK   58  A    between atoms: _140  and  _142
REMARK   59  A    between atoms: _142  and  _143
REMARK   60  A    between atoms: _145  and  _147
REMARK   61  A    between atoms: _147  and  _148
REMARK   62  A    between atoms: _147  and  _150
REMARK   63  A    between atoms: _150  and  _151
REMARK   64  A    between atoms: _154  and  _156
REMARK   65  A    between atoms: _156  and  _157
REMARK   66  A    between atoms: _159  and  _161
REMARK   67  A    between atoms: _161  and  _162
REMARK   68  A    between atoms: _164  and  _166
REMARK   69  A    between atoms: _166  and  _167
REMARK   70  A    between atoms: _166  and  _169
REMARK   71  A    between atoms: _172  and  _174
REMARK   72  A    between atoms: _174  and  _175
REMARK   73  A    between atoms: _174  and  _177
REMARK   74  A    between atoms: _180  and  _182
REMARK   75  A    between atoms: _182  and  _183
REMARK   76  A    between atoms: _182  and  _185
REMARK   77  A    between atoms: _185  and  _186
REMARK   78  A    between atoms: _190  and  _191
REMARK   79  A    between atoms: _196  and  _198
REMARK   80  A    between atoms: _198  and  _199
REMARK   81  A    between atoms: _198  and  _201
REMARK   82  A    between atoms: _201  and  _202
REMARK   83  A    between atoms: _206  and  _207
REMARK   84  A    between atoms: _212  and  _214
REMARK   85  A    between atoms: _214  and  _215
REMARK   86  A    between atoms: _214  and  _217
REMARK   87  A    between atoms: _217  and  _218
REMARK   88  A    between atoms: _221  and  _223
REMARK   89  A    between atoms: _223  and  _224
REMARK   90  A    between atoms: _223  and  _226
REMARK   91  A    between atoms: _226  and  _227
REMARK   92  A    between atoms: _232  and  _234
REMARK   93  A    between atoms: _234  and  _235
REMARK   94  A    between atoms: _234  and  _237
REMARK   95  A    between atoms: _240  and  _242
REMARK   96  A    between atoms: _242  and  _243
REMARK   97  A    between atoms: _242  and  _245
REMARK   98  A    between atoms: _245  and  _246
REMARK   99  A    between atoms: _249  and  _251
REMARK  100  A    between atoms: _251  and  _252
REMARK  101  A    between atoms: _254  and  _256
REMARK  102  A    between atoms: _256  and  _257
REMARK  103  A    between atoms: _256  and  _259
REMARK  104  A    between atoms: _259  and  _260
REMARK  105  A    between atoms: _260  and  _261
REMARK  106  A    between atoms: _261  and  _262
REMARK  107  A    between atoms: _271  and  _273
REMARK  108  A    between atoms: _273  and  _274
REMARK  109  A    between atoms: _273  and  _276
REMARK  110  A    between atoms: _276  and  _277
REMARK  111  A    between atoms: _282  and  _284
REMARK  112  A    between atoms: _284  and  _285
REMARK  113  A    between atoms: _284  and  _287
REMARK  114  A    between atoms: _287  and  _288
REMARK  115  A    between atoms: _288  and  _289
REMARK  116  A    between atoms: _289  and  _290
REMARK  117  A    between atoms: _299  and  _301
REMARK  118  A    between atoms: _301  and  _302
REMARK  119  A    between atoms: _301  and  _304
REMARK  120  A    between atoms: _304  and  _305
REMARK  121  A    between atoms: _308  and  _310
REMARK  122  A    between atoms: _310  and  _311
REMARK  123  A    between atoms: _310  and  _313
REMARK  124  A    between atoms: _313  and  _314
REMARK  125  A    between atoms: _317  and  _319
REMARK  126  A    between atoms: _319  and  _320
REMARK  127  A    between atoms: _319  and  _322
REMARK  128  A    between atoms: _322  and  _323
REMARK  129  A    between atoms: _326  and  _328
REMARK  130  A    between atoms: _328  and  _329
REMARK  131  A    between atoms: _328  and  _331
REMARK  132  A    between atoms: _331  and  _332
REMARK  133  A    between atoms: _335  and  _337
REMARK  134  A    between atoms: _337  and  _338
REMARK  135  A    between atoms: _340  and  _342
REMARK  136  A    between atoms: _342  and  _343
REMARK  137  A    between atoms: _346  and  _348
REMARK  138  A    between atoms: _348  and  _349
REMARK  139  A    between atoms: _348  and  _351
REMARK  140  A    between atoms: _351  and  _352
REMARK  141  A    between atoms: _355  and  _357
REMARK  142  A    between atoms: _357  and  _358
REMARK  143  A    between atoms: _357  and  _360
REMARK  144  A    between atoms: _360  and  _361
REMARK  145  A    between atoms: _364  and  _366
REMARK  146  A    between atoms: _366  and  _367
REMARK  147  A    between atoms: _366  and  _369
REMARK  148  A    between atoms: _369  and  _370
REMARK  149  A    between atoms: _373  and  _375
REMARK  150  A    between atoms: _375  and  _376
REMARK  151  A    between atoms: _375  and  _378
REMARK  152  A    between atoms: _381  and  _383
REMARK  153  A    between atoms: _383  and  _384
REMARK  154  A    between atoms: _383  and  _386
REMARK  155  A    between atoms: _386  and  _387
REMARK  156  A    between atoms: _387  and  _388
REMARK  157  A    between atoms: _388  and  _389
REMARK  158  A    between atoms: _398  and  _400
REMARK  159  A    between atoms: _400  and  _401
REMARK  160  A    between atoms: _400  and  _403
REMARK  161  A    between atoms: _403  and  _404
REMARK  162  A    between atoms: _407  and  _409
REMARK  163  A    between atoms: _409  and  _410
REMARK  164  A    between atoms: _409  and  _412
REMARK  165  A    between atoms: _412  and  _413
REMARK  166  A    between atoms: _416  and  _418
REMARK  167  A    between atoms: _418  and  _419
REMARK  168  A    between atoms: _421  and  _423
REMARK  169  A    between atoms: _423  and  _424
REMARK  170  A    between atoms: _426  and  _428
REMARK  171  A    between atoms: _428  and  _429
REMARK  172  A    between atoms: _428  and  _431
REMARK  173  A    between atoms: _431  and  _432
REMARK  174  A    between atoms: _435  and  _437
REMARK  175  A    between atoms: _437  and  _438
REMARK  176  A    between atoms: _440  and  _442
REMARK  177  A    between atoms: _442  and  _443
REMARK  178  A    between atoms: _445  and  _447
REMARK  179  A    between atoms: _447  and  _448
REMARK  180  A    between atoms: _447  and  _450
REMARK  181  A    between atoms: _453  and  _455
REMARK  182  A    between atoms: _455  and  _456
REMARK  183  A    between atoms: _455  and  _458
REMARK  184  A    between atoms: _458  and  _459
REMARK  185  A    between atoms: _462  and  _464
REMARK  186  A    between atoms: _464  and  _465
REMARK  187  A    between atoms: _464  and  _467
REMARK  188  A    between atoms: _467  and  _468
REMARK  189  A    between atoms: _472  and  _473
REMARK  190  A    between atoms: _478  and  _480
REMARK  191  A    between atoms: _480  and  _481
REMARK  192  A    between atoms: _480  and  _483
REMARK  193  A    between atoms: _483  and  _484
REMARK  194  A    between atoms: _487  and  _489
REMARK  195  A    between atoms: _489  and  _490
REMARK  196  A    between atoms: _489  and  _492
REMARK  197  A    between atoms: _492  and  _493
REMARK  198  A    between atoms: _498  and  _500
REMARK  199  A    between atoms: _500  and  _501
REMARK  200  A    between atoms: _500  and  _503
REMARK  201  A    between atoms: _506  and  _508
REMARK  202  A    between atoms: _508  and  _509
REMARK  203  A    between atoms: _508  and  _511
REMARK  204  A    between atoms: _511  and  _512
REMARK  205  A    between atoms: _515  and  _517
REMARK  206  A    between atoms: _517  and  _518
REMARK  207  A    between atoms: _520  and  _522
REMARK  208  A    between atoms: _522  and  _523
REMARK  209  A    between atoms: _522  and  _525
REMARK  210  A    between atoms: _525  and  _526
REMARK  211  A    between atoms: _526  and  _527
REMARK  212  A    between atoms: _527  and  _528
REMARK  213  A    between atoms: _537  and  _539
REMARK  214  A    between atoms: _539  and  _540
REMARK  215  A    between atoms: _539  and  _542
REMARK  216  A    between atoms: _542  and  _543
REMARK                            x       y       z     vdW  Elec       q    Type
REMARK                         _______ _______ _______ _____ _____    ______ ____
ROOT
ATOM      1  CA  LEU A   1     -13.338  12.269  13.913  0.00  0.00    +0.133 C 
ENDROOT
BRANCH   1   2
ATOM      2  N   LEU A   1     -14.178  13.437  13.714  0.00  0.00    -0.239 NA
ATOM      3  H   LEU A   1     -14.277  14.121  14.491  0.00  0.00    +0.142 HD
ENDBRANCH   1   2
BRANCH   1   4
ATOM      4  C   LEU A   1     -14.148  11.208  14.639  0.00  0.00    +0.224 C 
ATOM      5  O   LEU A   1     -14.858  11.509  15.606  0.00  0.00    -0.287 OA
ENDBRANCH   1   4
BRANCH   1   6
ATOM      6  CB  LEU A   1     -12.105  12.639  14.748  0.00  0.00    +0.025 C 
BRANCH   6   7
ATOM      7  CG  LEU A   1     -11.285  13.833  14.259  0.00  0.00    +0.002 C 
ATOM      8  CD2 LEU A   1     -10.110  14.093  15.189  0.00  0.00    +0.000 C 
ATOM      9  CD1 LEU A   1     -10.786  13.619  12.829  0.00  0.00    +0.000 C 
ENDBRANCH   6   7
ENDBRANCH   1   6
TORSDOF 4
REMARK  Name = ../refined-set-2016/3ggu/3ggu_pocket.pdb
REMARK  216 active torsions:
REMARK  status: ('A' for Active; 'I' for Inactive)
REMARK    1  A    between atoms: _1  and  _3
REMARK    2  A    between atoms: _3  and  _4
REMARK    3  A    between atoms: _3  and  _6
REMARK    4  A    between atoms: _6  and  _7
REMARK    5  A    between atoms: _7  and  _8
REMARK    6  A    between atoms: _8  and  _9
REMARK    7  A    between atoms: _18  and  _20
REMARK    8  A    between atoms: _20  and  _21
REMARK    9  A    between atoms: _20  and  _23
REMARK   10  A    between atoms: _23  and  _24
REMARK   11  A    between atoms: _27  and  _29
REMARK   12  A    between atoms: _29  and  _30
REMARK   13  A    between atoms: _29  and  _32
REMARK   14  A    between atoms: _32  and  _33
REMARK   15  A    between atoms: _36  and  _38
REMARK   16  A    between atoms: _38  and  _39
REMARK   17  A    between atoms: _38  and  _41
REMARK   18  A    between atoms: _41  and  _42
REMARK   19  A    between atoms: _45  and  _47
REMARK   20  A    between atoms: _47  and  _48
REMARK   21  A    between atoms: _47  and  _50
REMARK   22  A    between atoms: _50  and  _51
REMARK   23  A    between atoms: _54  and  _56
REMARK   24  A    between atoms: _56  and  _57
REMARK   25  A    between atoms: _59  and  _61
REMARK   26  A    between atoms: _61  and  _62
REMARK   27  A    between atoms: _65  and  _67
REMARK   28  A    between atoms: _67  and  _68
REMARK   29  A    between atoms: _67  and  _70
REMARK   30  A    between atoms: _70  and  _71
REMARK   31  A    between atoms: _74  and  _76
REMARK   32  A    between atoms: _76  and  _77
REMARK   33  A    between atoms: _76  and  _79
REMARK   34  A    between atoms: _79  and  _80
REMARK   35  A    between atoms: _83  and  _85
REMARK   36  A    between atoms: _85  and  _86
REMARK   37  A    between atoms: _85  and  _88
REMARK   38  A    between atoms: _88  and  _89
REMARK   39  A    between atoms: _92  and  _94
REMARK   40  A    between atoms: _94  and  _95
REMARK   41  A    between atoms: _94  and  _97
REMARK   42  A    between atoms: _100  and  _102
REMARK   43  A    between atoms: _102  and  _103
REMARK   44  A    between atoms: _102  and  _105
REMARK   45  A    between atoms: _105  and  _106
REMARK   46  A    between atoms: _106  and  _107
REMARK   47  A    between atoms: _107  and  _108
REMARK   48  A    between atoms: _117  and  _119
REMARK   49  A    between atoms: _119  and  _120
REMARK   50  A    between atoms: _119  and  _122
REMARK   51  A    between atoms: _122  and  _123
REMARK   52  A    between atoms: _126  and  _128
REMARK   53  A    between atoms: _128  and  _129
REMARK   54  A    between atoms: _128  and  _131
REMARK   55  A    between atoms: _131  and  _132
REMARK   56  A    between atoms: _135  and  _137
REMARK   57  A    between atoms: _137  and  _138
REMARK   58  A    between atoms: _140  and  _142
REMARK   59  A    between atoms: _142  and  _143
REMARK   60  A    between atoms: _145  and  _147
REMARK   61  A    between atoms: _147  and  _148
REMARK   62  A    between atoms: _147  and  _150
REMARK   63  A    between atoms: _150  and  _151
REMARK   64  A    between atoms: _154  and  _156
REMARK   65  A    between atoms: _156  and  _157
REMARK   66  A    between atoms: _159  and  _161
REMARK   67  A    between atoms: _161  and  _162
REMARK   68  A    between atoms: _164  and  _166
REMARK   69  A    between atoms: _166  and  _167
REMARK   70  A    between atoms: _166  and  _169
REMARK   71  A    between atoms: _172  and  _174
REMARK   72  A    between atoms: _174  and  _175
REMARK   73  A    between atoms: _174  and  _177
REMARK   74  A    between atoms: _180  and  _182
REMARK   75  A    between atoms: _182  and  _183
REMARK   76  A    between atoms: _182  and  _185
REMARK   77  A    between atoms: _185  and  _186
REMARK   78  A    between atoms: _190  and  _191
REMARK   79  A    between atoms: _196  and  _198
REMARK   80  A    between atoms: _198  and  _199
REMARK   81  A    between atoms: _198  and  _201
REMARK   82  A    between atoms: _201  and  _202
REMARK   83  A    between atoms: _206  and  _207
REMARK   84  A    between atoms: _212  and  _214
REMARK   85  A    between atoms: _214  and  _215
REMARK   86  A    between atoms: _214  and  _217
REMARK   87  A    between atoms: _217  and  _218
REMARK   88  A    between atoms: _221  and  _223
REMARK   89  A    between atoms: _223  and  _224
REMARK   90  A    between atoms: _223  and  _226
REMARK   91  A    between atoms: _226  and  _227
REMARK   92  A    between atoms: _232  and  _234
REMARK   93  A    between atoms: _234  and  _235
REMARK   94  A    between atoms: _234  and  _237
REMARK   95  A    between atoms: _240  and  _242
REMARK   96  A    between atoms: _242  and  _243
REMARK   97  A    between atoms: _242  and  _245
REMARK   98  A    between atoms: _245  and  _246
REMARK   99  A    between atoms: _249  and  _251
REMARK  100  A    between atoms: _251  and  _252
REMARK  101  A    between atoms: _254  and  _256
REMARK  102  A    between atoms: _256  and  _257
REMARK  103  A    between atoms: _256  and  _259
REMARK  104  A    between atoms: _259  and  _260
REMARK  105  A    between atoms: _260  and  _261
REMARK  106  A    between atoms: _261  and  _262
REMARK  107  A    between atoms: _271  and  _273
REMARK  108  A    between atoms: _273  and  _274
REMARK  109  A    between atoms: _273  and  _276
REMARK  110  A    between atoms: _276  and  _277
REMARK  111  A    between atoms: _282  and  _284
REMARK  112  A    between atoms: _284  and  _285
REMARK  113  A    between atoms: _284  and  _287
REMARK  114  A    between atoms: _287  and  _288
REMARK  115  A    between atoms: _288  and  _289
REMARK  116  A    between atoms: _289  and  _290
REMARK  117  A    between atoms: _299  and  _301
REMARK  118  A    between atoms: _301  and  _302
REMARK  119  A    between atoms: _301  and  _304
REMARK  120  A    between atoms: _304  and  _305
REMARK  121  A    between atoms: _308  and  _310
REMARK  122  A    between atoms: _310  and  _311
REMARK  123  A    between atoms: _310  and  _313
REMARK  124  A    between atoms: _313  and  _314
REMARK  125  A    between atoms: _317  and  _319
REMARK  126  A    between atoms: _319  and  _320
REMARK  127  A    between atoms: _319  and  _322
REMARK  128  A    between atoms: _322  and  _323
REMARK  129  A    between atoms: _326  and  _328
REMARK  130  A    between atoms: _328  and  _329
REMARK  131  A    between atoms: _328  and  _331
REMARK  132  A    between atoms: _331  and  _332
REMARK  133  A    between atoms: _335  and  _337
REMARK  134  A    between atoms: _337  and  _338
REMARK  135  A    between atoms: _340  and  _342
REMARK  136  A    between atoms: _342  and  _343
REMARK  137  A    between atoms: _346  and  _348
REMARK  138  A    between atoms: _348  and  _349
REMARK  139  A    between atoms: _348  and  _351
REMARK  140  A    between atoms: _351  and  _352
REMARK  141  A    between atoms: _355  and  _357
REMARK  142  A    between atoms: _357  and  _358
REMARK  143  A    between atoms: _357  and  _360
REMARK  144  A    between atoms: _360  and  _361
REMARK  145  A    between atoms: _364  and  _366
REMARK  146  A    between atoms: _366  and  _367
REMARK  147  A    between atoms: _366  and  _369
REMARK  148  A    between atoms: _369  and  _370
REMARK  149  A    between atoms: _373  and  _375
REMARK  150  A    between atoms: _375  and  _376
REMARK  151  A    between atoms: _375  and  _378
REMARK  152  A    between atoms: _381  and  _383
REMARK  153  A    between atoms: _383  and  _384
REMARK  154  A    between atoms: _383  and  _386
REMARK  155  A    between atoms: _386  and  _387
REMARK  156  A    between atoms: _387  and  _388
REMARK  157  A    between atoms: _388  and  _389
REMARK  158  A    between atoms: _398  and  _400
REMARK  159  A    between atoms: _400  and  _401
REMARK  160  A    between atoms: _400  and  _403
REMARK  161  A    between atoms: _403  and  _404
REMARK  162  A    between atoms: _407  and  _409
REMARK  163  A    between atoms: _409  and  _410
REMARK  164  A    between atoms: _409  and  _412
REMARK  165  A    between atoms: _412  and  _413
REMARK  166  A    between atoms: _416  and  _418
REMARK  167  A    between atoms: _418  and  _419
REMARK  168  A    between atoms: _421  and  _423
REMARK  169  A    between atoms: _423  and  _424
REMARK  170  A    between atoms: _426  and  _428
REMARK  171  A    between atoms: _428  and  _429
REMARK  172  A    between atoms: _428  and  _431
REMARK  173  A    between atoms: _431  and  _432
REMARK  174  A    between atoms: _435  and  _437
REMARK  175  A    between atoms: _437  and  _438
REMARK  176  A    between atoms: _440  and  _442
REMARK  177  A    between atoms: _442  and  _443
REMARK  178  A    between atoms: _445  and  _447
REMARK  179  A    between atoms: _447  and  _448
REMARK  180  A    between atoms: _447  and  _450
REMARK  181  A    between atoms: _453  and  _455
REMARK  182  A    between atoms: _455  and  _456
REMARK  183  A    between atoms: _455  and  _458
REMARK  184  A    between atoms: _458  and  _459
REMARK  185  A    between atoms: _462  and  _464
REMARK  186  A    between atoms: _464  and  _465
REMARK  187  A    between atoms: _464  and  _467
REMARK  188  A    between atoms: _467  and  _468
REMARK  189  A    between atoms: _472  and  _473
REMARK  190  A    between atoms: _478  and  _480
REMARK  191  A    between atoms: _480  and  _481
REMARK  192  A    between atoms: _480  and  _483
REMARK  193  A    between atoms: _483  and  _484
REMARK  194  A    between atoms: _487  and  _489
REMARK  195  A    between atoms: _489  and  _490
REMARK  196  A    between atoms: _489  and  _492
REMARK  197  A    between atoms: _492  and  _493
REMARK  198  A    between atoms: _498  and  _500
REMARK  199  A    between atoms: _500  and  _501
REMARK  200  A    between atoms: _500  and  _503
REMARK  201  A    between atoms: _506  and  _508
REMARK  202  A    between atoms: _508  and  _509
REMARK  203  A    between atoms: _508  and  _511
REMARK  204  A    between atoms: _511  and  _512
REMARK  205  A    between atoms: _515  and  _517
REMARK  206  A    between atoms: _517  and  _518
REMARK  207  A    between atoms: _520  and  _522
REMARK  208  A    between atoms: _522  and  _523
REMARK  209  A    between atoms: _522  and  _525
REMARK  210  A    between atoms: _525  and  _526
REMARK  211  A    between atoms: _526  and  _527
REMARK  212  A    between atoms: _527  and  _528
REMARK  213  A    between atoms: _537  and  _539
REMARK  214  A    between atoms: _539  and  _540
REMARK  215  A    between atoms: _539  and  _542
REMARK  216  A    between atoms: _542  and  _543
REMARK                            x       y       z     vdW  Elec       q    Type
REMARK                         _______ _______ _______ _____ _____    ______ ____
ROOT
ATOM      1  CA  VAL A   6     -16.731  16.212  22.246  0.00  0.00    +0.149 C 
ENDROOT
BRANCH   1   2
ATOM      2  C   VAL A   6     -16.926  17.065  21.003  0.00  0.00    +0.241 C 
ATOM      3  N   ILE A   7     -17.500  18.248  21.218  0.00  0.00    -0.297 N 
ATOM      4  H   ILE A   7     -17.837  18.479  22.174  0.00  0.00    +0.150 HD
ATOM      5  O   VAL A   6     -16.654  16.615  19.880  0.00  0.00    -0.273 OA
BRANCH   3   6
ATOM      6  CA  ILE A   7     -17.670  19.230  20.149  0.00  0.00    +0.149 C 
BRANCH   6   7
ATOM      7  C   ILE A   7     -16.479  20.171  20.278  0.00  0.00    +0.241 C 
ATOM      8  O   ILE A   7     -16.294  20.800  21.319  0.00  0.00    -0.273 OA
ATOM      9  N   GLY A   8     -15.670  20.237  19.228  0.00  0.00    -0.295 N 
ATOM     10  H   GLY A   8     -15.934  19.750  18.348  0.00  0.00    +0.150 HD
BRANCH   9  11
ATOM     11  CA  GLY A   8     -14.409  20.986  19.288  0.00  0.00    +0.176 C 
BRANCH  11  12
ATOM     12  C   GLY A   8     -14.518  22.428  18.830  0.00  0.00    +0.243 C 
ATOM     13  N   ARG A   9     -13.384  23.124  18.870  0.00  0.00    -0.297 N 
ATOM     14  H   ARG A   9     -12.503  22.653  19.159  0.00  0.00    +0.150 HD
ATOM     15  O   GLY A   8     -15.587  22.895  18.422  0.00  0.00    -0.273 OA
BRANCH  13  16
ATOM     16  CA  ARG A   9     -13.361  24.535  18.515  0.00  0.00    +0.149 C 
BRANCH  16  17
ATOM     17  C   ARG A   9     -13.783  24.731  17.078  0.00  0.00    +0.241 C 
ATOM     18  O   ARG A   9     -14.325  25.773  16.756  0.00  0.00    -0.273 OA
ATOM     19  N   ASN A  10     -13.536  23.733  16.230  0.00  0.00    -0.298 N 
ATOM     20  H   ASN A  10     -13.080  22.868  16.585  0.00  0.00    +0.150 HD
BRANCH  19  21
ATOM     21  CA  ASN A  10     -13.890  23.822  14.807  0.00  0.00    +0.146 C 
BRANCH  21  22
ATOM     22  C   ASN A  10     -15.384  24.113  14.616  0.00  0.00    +0.227 C 
ATOM     23  O   ASN A  10     -15.768  24.931  13.787  0.00  0.00    -0.286 OA
ENDBRANCH  21  22
BRANCH  21  24
ATOM     24  CB  ASN A  10     -13.387  22.601  14.001  0.00  0.00    +0.112 C 
BRANCH  24  25
ATOM     25  CG  ASN A  10     -14.091  21.286  14.361  0.00  0.00    +0.222 C 
ATOM     26  OD1 ASN A  10     -14.273  20.950  15.540  0.00  0.00    -0.275 OA
ATOM     27  ND2 ASN A  10     -14.475  20.521  13.327  0.00  0.00    -0.329 N 
ATOM     28 HD21 ASN A  10     -14.944  19.609  13.501  0.00  0.00    +0.145 HD
ATOM     29 HD22 ASN A  10     -14.303  20.840  12.352  0.00  0.00    +0.145 HD
ENDBRANCH  24  25
ENDBRANCH  21  24
ENDBRANCH  19  21
ENDBRANCH  16  17
BRANCH  16  30
ATOM     30  CB  ARG A   9     -11.986  25.131  18.746  0.00  0.00    +0.033 C 
BRANCH  30  31
ATOM     31  CG  ARG A   9     -11.569  25.180  20.216  0.00  0.00    +0.045 C 
BRANCH  31  32
ATOM     32  CD  ARG A   9     -10.268  26.003  20.439  0.00  0.00    +0.174 C 
BRANCH  32  33
ATOM     33  NE  ARG A   9      -9.118  25.319  19.844  0.00  0.00    -0.265 N 
ATOM     34  HE  ARG A   9      -8.694  24.539  20.385  0.00  0.00    +0.259 HD
ATOM     35  CZ  ARG A   9      -8.571  25.615  18.665  0.00  0.00    +0.342 C 
ATOM     36  NH2 ARG A   9      -7.545  24.904  18.226  0.00  0.00    -0.292 N 
ATOM     37 HH21 ARG A   9      -7.171  24.121  18.800  0.00  0.00    +0.255 HD
ATOM     38 HH22 ARG A   9      -7.112  25.128  17.307  0.00  0.00    +0.255 HD
ATOM     39  NH1 ARG A   9      -9.036  26.620  17.917  0.00  0.00    -0.292 N 
ATOM     40 HH11 ARG A   9      -9.840  27.189  18.252  0.00  0.00    +0.255 HD
ATOM     41 HH12 ARG A   9      -8.594  26.834  17.000  0.00  0.00    +0.255 HD
ENDBRANCH  32  33
ENDBRANCH  31  32
ENDBRANCH  30  31
ENDBRANCH  16  30
ENDBRANCH  13  16
ENDBRANCH  11  12
ENDBRANCH   9  11
ENDBRANCH   6   7
BRANCH   6  42
ATOM     42  CB  ILE A   7     -18.948  20.044  20.352  0.00  0.00    +0.027 C 
ATOM     43  CG2 ILE A   7     -19.069  21.129  19.274  0.00  0.00    +0.002 C 
BRANCH  42  44
ATOM     44  CG1 ILE A   7     -20.173  19.111  20.388  0.00  0.00    +0.002 C 
ATOM     45  CD1 ILE A   7     -20.317  18.210  19.182  0.00  0.00    +0.000 C 
ENDBRANCH  42  44
ENDBRANCH   6  42
ENDBRANCH   3   6
ENDBRANCH   1   2
BRANCH   1  48
ATOM     46  C   ASN A   5     -17.910  14.173  22.848  0.00  0.00    +0.241 C 
ATOM     47  O   ASN A   5     -18.433  14.739  23.820  0.00  0.00    -0.273 OA
ATOM     48  N   VAL A   6     -17.128  14.815  21.969  0.00  0.00    -0.297 N 
ATOM     49  H   VAL A   6     -16.805  14.337  21.104  0.00  0.00    +0.150 HD
BRANCH  46  50
ATOM     50  CA  ASN A   5     -18.193  12.711  22.597  0.00  0.00    +0.158 C 
BRANCH  50  53
ATOM     51  C   THR A   4     -16.980  11.807  24.503  0.00  0.00    +0.243 C 
ATOM     52  O   THR A   4     -15.881  12.152  24.020  0.00  0.00    -0.273 OA
ATOM     53  N   ASN A   5     -18.148  11.980  23.874  0.00  0.00    -0.297 N 
ATOM     54  H   ASN A   5     -19.023  11.599  24.287  0.00  0.00    +0.150 HD
BRANCH  51  55
ATOM     55  CA  THR A   4     -17.021  11.176  25.901  0.00  0.00    +0.176 C 
BRANCH  55  58
ATOM     56  C   PRO A   3     -16.195   8.953  26.553  0.00  0.00    +0.241 C 
ATOM     57  O   PRO A   3     -17.254   8.607  27.078  0.00  0.00    -0.273 OA
ATOM     58  N   THR A   4     -16.008  10.131  25.945  0.00  0.00    -0.295 N 
ATOM     59  H   THR A   4     -15.094  10.308  25.481  0.00  0.00    +0.150 HD
BRANCH  56  62
ATOM     60  C   THR A   2     -14.351   8.020  24.290  0.00  0.00    +0.246 C 
ATOM     61  N   PRO A   3     -14.017   8.268  25.557  0.00  0.00    -0.272 N 
ATOM     62  CA  PRO A   3     -15.011   8.005  26.582  0.00  0.00    +0.152 C 
ATOM     63  CB  PRO A   3     -14.238   8.193  27.887  0.00  0.00    +0.031 C 
ATOM     64  CG  PRO A   3     -12.824   8.311  27.512  0.00  0.00    +0.024 C 
ATOM     65  CD  PRO A   3     -12.749   8.755  26.119  0.00  0.00    +0.094 C 
ATOM     66  O   THR A   2     -15.446   7.554  23.973  0.00  0.00    -0.273 OA
BRANCH  60  67
ATOM     67  CA  THR A   2     -13.306   8.311  23.225  0.00  0.00    +0.176 C 
BRANCH  67  69
ATOM     68  C   PRO A   1     -12.398   6.792  21.555  0.00  0.00    +0.239 C 
ATOM     69  N   THR A   2     -13.426   7.240  22.251  0.00  0.00    -0.295 N 
ATOM     70  H   THR A   2     -14.360   6.809  22.096  0.00  0.00    +0.150 HD
ATOM     71  O   PRO A   1     -11.329   7.383  21.489  0.00  0.00    -0.274 OA
BRANCH  68  73
ATOM     72  N   PRO A   1     -12.462   5.671  19.347  0.00  0.00    -0.210 NA
ATOM     73  CA  PRO A   1     -12.637   5.499  20.777  0.00  0.00    +0.149 C 
ATOM     74  CB  PRO A   1     -11.589   4.441  21.137  0.00  0.00    +0.028 C 
ATOM     75  CG  PRO A   1     -10.627   4.424  19.998  0.00  0.00    +0.021 C 
ATOM     76  CD  PRO A   1     -11.429   4.764  18.805  0.00  0.00    +0.089 C 
ENDBRANCH  68  73
ENDBRANCH  67  69
BRANCH  67  77
ATOM     77  CB  THR A   2     -13.542   9.724  22.609  0.00  0.00    +0.137 C 
ATOM     78  CG2 THR A   2     -14.841   9.787  21.801  0.00  0.00    +0.034 C 
BRANCH  77  79
ATOM     79  OG1 THR A   2     -13.632  10.684  23.662  0.00  0.00    -0.382 OA
ATOM     80  HG1 THR A   2     -14.387  10.449  24.257  0.00  0.00    +0.210 HD
ENDBRANCH  77  79
ENDBRANCH  67  77
ENDBRANCH  60  67
ENDBRANCH  56  62
ENDBRANCH  55  58
BRANCH  55  81
ATOM     81  CB  THR A   4     -16.676  12.282  26.940  0.00  0.00    +0.137 C 
ATOM     82  CG2 THR A   4     -17.589  13.471  26.797  0.00  0.00    +0.034 C 
BRANCH  81  83
ATOM     83  OG1 THR A   4     -16.782  11.761  28.288  0.00  0.00    -0.382 OA
ATOM     84  HG1 THR A   4     -16.560  12.476  28.935  0.00  0.00    +0.210 HD
ENDBRANCH  81  83
ENDBRANCH  55  81
ENDBRANCH  51  55
ENDBRANCH  50  53
BRANCH  50  85
ATOM     85  CB  ASN A   5     -19.575  12.593  21.950  0.00  0.00    +0.114 C 
BRANCH  85  86
ATOM     86  CG  ASN A   5     -19.980  11.153  21.698  0.00  0.00    +0.222 C 
ATOM     87  ND2 ASN A   5     -21.284  10.879  21.770  0.00  0.00    -0.329 N 
ATOM     88 HD21 ASN A   5     -21.958  11.626  22.033  0.00  0.00    +0.145 HD
ATOM     89 HD22 ASN A   5     -21.626   9.919  21.563  0.00  0.00    +0.145 HD
ATOM     90  OD1 ASN A   5     -19.137  10.314  21.393  0.00  0.00    -0.275 OA
ENDBRANCH  85  86
ENDBRANCH  50  85
ENDBRANCH  46  50
ENDBRANCH   1  48
BRANCH   1  91
ATOM     91  CB  VAL A   6     -15.288  16.381  22.774  0.00  0.00    +0.027 C 
ATOM     92  CG2 VAL A   6     -15.079  15.683  24.168  0.00  0.00    +0.002 C 
ATOM     93  CG1 VAL A   6     -14.225  15.999  21.697  0.00  0.00    +0.002 C 
ENDBRANCH   1  91
TORSDOF 33
REMARK  Name = ../refined-set-2016/3ggu/3ggu_pocket.pdb
REMARK  216 active torsions:
REMARK  status: ('A' for Active; 'I' for Inactive)
REMARK    1  A    between atoms: _1  and  _3
REMARK    2  A    between atoms: _3  and  _4
REMARK    3  A    between atoms: _3  and  _6
REMARK    4  A    between atoms: _6  and  _7
REMARK    5  A    between atoms: _7  and  _8
REMARK    6  A    between atoms: _8  and  _9
REMARK    7  A    between atoms: _18  and  _20
REMARK    8  A    between atoms: _20  and  _21
REMARK    9  A    between atoms: _20  and  _23
REMARK   10  A    between atoms: _23  and  _24
REMARK   11  A    between atoms: _27  and  _29
REMARK   12  A    between atoms: _29  and  _30
REMARK   13  A    between atoms: _29  and  _32
REMARK   14  A    between atoms: _32  and  _33
REMARK   15  A    between atoms: _36  and  _38
REMARK   16  A    between atoms: _38  and  _39
REMARK   17  A    between atoms: _38  and  _41
REMARK   18  A    between atoms: _41  and  _42
REMARK   19  A    between atoms: _45  and  _47
REMARK   20  A    between atoms: _47  and  _48
REMARK   21  A    between atoms: _47  and  _50
REMARK   22  A    between atoms: _50  and  _51
REMARK   23  A    between atoms: _54  and  _56
REMARK   24  A    between atoms: _56  and  _57
REMARK   25  A    between atoms: _59  and  _61
REMARK   26  A    between atoms: _61  and  _62
REMARK   27  A    between atoms: _65  and  _67
REMARK   28  A    between atoms: _67  and  _68
REMARK   29  A    between atoms: _67  and  _70
REMARK   30  A    between atoms: _70  and  _71
REMARK   31  A    between atoms: _74  and  _76
REMARK   32  A    between atoms: _76  and  _77
REMARK   33  A    between atoms: _76  and  _79
REMARK   34  A    between atoms: _79  and  _80
REMARK   35  A    between atoms: _83  and  _85
REMARK   36  A    between atoms: _85  and  _86
REMARK   37  A    between atoms: _85  and  _88
REMARK   38  A    between atoms: _88  and  _89
REMARK   39  A    between atoms: _92  and  _94
REMARK   40  A    between atoms: _94  and  _95
REMARK   41  A    between atoms: _94  and  _97
REMARK   42  A    between atoms: _100  and  _102
REMARK   43  A    between atoms: _102  and  _103
REMARK   44  A    between atoms: _102  and  _105
REMARK   45  A    between atoms: _105  and  _106
REMARK   46  A    between atoms: _106  and  _107
REMARK   47  A    between atoms: _107  and  _108
REMARK   48  A    between atoms: _117  and  _119
REMARK   49  A    between atoms: _119  and  _120
REMARK   50  A    between atoms: _119  and  _122
REMARK   51  A    between atoms: _122  and  _123
REMARK   52  A    between atoms: _126  and  _128
REMARK   53  A    between atoms: _128  and  _129
REMARK   54  A    between atoms: _128  and  _131
REMARK   55  A    between atoms: _131  and  _132
REMARK   56  A    between atoms: _135  and  _137
REMARK   57  A    between atoms: _137  and  _138
REMARK   58  A    between atoms: _140  and  _142
REMARK   59  A    between atoms: _142  and  _143
REMARK   60  A    between atoms: _145  and  _147
REMARK   61  A    between atoms: _147  and  _148
REMARK   62  A    between atoms: _147  and  _150
REMARK   63  A    between atoms: _150  and  _151
REMARK   64  A    between atoms: _154  and  _156
REMARK   65  A    between atoms: _156  and  _157
REMARK   66  A    between atoms: _159  and  _161
REMARK   67  A    between atoms: _161  and  _162
REMARK   68  A    between atoms: _164  and  _166
REMARK   69  A    between atoms: _166  and  _167
REMARK   70  A    between atoms: _166  and  _169
REMARK   71  A    between atoms: _172  and  _174
REMARK   72  A    between atoms: _174  and  _175
REMARK   73  A    between atoms: _174  and  _177
REMARK   74  A    between atoms: _180  and  _182
REMARK   75  A    between atoms: _182  and  _183
REMARK   76  A    between atoms: _182  and  _185
REMARK   77  A    between atoms: _185  and  _186
REMARK   78  A    between atoms: _190  and  _191
REMARK   79  A    between atoms: _196  and  _198
REMARK   80  A    between atoms: _198  and  _199
REMARK   81  A    between atoms: _198  and  _201
REMARK   82  A    between atoms: _201  and  _202
REMARK   83  A    between atoms: _206  and  _207
REMARK   84  A    between atoms: _212  and  _214
REMARK   85  A    between atoms: _214  and  _215
REMARK   86  A    between atoms: _214  and  _217
REMARK   87  A    between atoms: _217  and  _218
REMARK   88  A    between atoms: _221  and  _223
REMARK   89  A    between atoms: _223  and  _224
REMARK   90  A    between atoms: _223  and  _226
REMARK   91  A    between atoms: _226  and  _227
REMARK   92  A    between atoms: _232  and  _234
REMARK   93  A    between atoms: _234  and  _235
REMARK   94  A    between atoms: _234  and  _237
REMARK   95  A    between atoms: _240  and  _242
REMARK   96  A    between atoms: _242  and  _243
REMARK   97  A    between atoms: _242  and  _245
REMARK   98  A    between atoms: _245  and  _246
REMARK   99  A    between atoms: _249  and  _251
REMARK  100  A    between atoms: _251  and  _252
REMARK  101  A    between atoms: _254  and  _256
REMARK  102  A    between atoms: _256  and  _257
REMARK  103  A    between atoms: _256  and  _259
REMARK  104  A    between atoms: _259  and  _260
REMARK  105  A    between atoms: _260  and  _261
REMARK  106  A    between atoms: _261  and  _262
REMARK  107  A    between atoms: _271  and  _273
REMARK  108  A    between atoms: _273  and  _274
REMARK  109  A    between atoms: _273  and  _276
REMARK  110  A    between atoms: _276  and  _277
REMARK  111  A    between atoms: _282  and  _284
REMARK  112  A    between atoms: _284  and  _285
REMARK  113  A    between atoms: _284  and  _287
REMARK  114  A    between atoms: _287  and  _288
REMARK  115  A    between atoms: _288  and  _289
REMARK  116  A    between atoms: _289  and  _290
REMARK  117  A    between atoms: _299  and  _301
REMARK  118  A    between atoms: _301  and  _302
REMARK  119  A    between atoms: _301  and  _304
REMARK  120  A    between atoms: _304  and  _305
REMARK  121  A    between atoms: _308  and  _310
REMARK  122  A    between atoms: _310  and  _311
REMARK  123  A    between atoms: _310  and  _313
REMARK  124  A    between atoms: _313  and  _314
REMARK  125  A    between atoms: _317  and  _319
REMARK  126  A    between atoms: _319  and  _320
REMARK  127  A    between atoms: _319  and  _322
REMARK  128  A    between atoms: _322  and  _323
REMARK  129  A    between atoms: _326  and  _328
REMARK  130  A    between atoms: _328  and  _329
REMARK  131  A    between atoms: _328  and  _331
REMARK  132  A    between atoms: _331  and  _332
REMARK  133  A    between atoms: _335  and  _337
REMARK  134  A    between atoms: _337  and  _338
REMARK  135  A    between atoms: _340  and  _342
REMARK  136  A    between atoms: _342  and  _343
REMARK  137  A    between atoms: _346  and  _348
REMARK  138  A    between atoms: _348  and  _349
REMARK  139  A    between atoms: _348  and  _351
REMARK  140  A    between atoms: _351  and  _352
REMARK  141  A    between atoms: _355  and  _357
REMARK  142  A    between atoms: _357  and  _358
REMARK  143  A    between atoms: _357  and  _360
REMARK  144  A    between atoms: _360  and  _361
REMARK  145  A    between atoms: _364  and  _366
REMARK  146  A    between atoms: _366  and  _367
REMARK  147  A    between atoms: _366  and  _369
REMARK  148  A    between atoms: _369  and  _370
REMARK  149  A    between atoms: _373  and  _375
REMARK  150  A    between atoms: _375  and  _376
REMARK  151  A    between atoms: _375  and  _378
REMARK  152  A    between atoms: _381  and  _383
REMARK  153  A    between atoms: _383  and  _384
REMARK  154  A    between atoms: _383  and  _386
REMARK  155  A    between atoms: _386  and  _387
REMARK  156  A    between atoms: _387  and  _388
REMARK  157  A    between atoms: _388  and  _389
REMARK  158  A    between atoms: _398  and  _400
REMARK  159  A    between atoms: _400  and  _401
REMARK  160  A    between atoms: _400  and  _403
REMARK  161  A    between atoms: _403  and  _404
REMARK  162  A    between atoms: _407  and  _409
REMARK  163  A    between atoms: _409  and  _410
REMARK  164  A    between atoms: _409  and  _412
REMARK  165  A    between atoms: _412  and  _413
REMARK  166  A    between atoms: _416  and  _418
REMARK  167  A    between atoms: _418  and  _419
REMARK  168  A    between atoms: _421  and  _423
REMARK  169  A    between atoms: _423  and  _424
REMARK  170  A    between atoms: _426  and  _428
REMARK  171  A    between atoms: _428  and  _429
REMARK  172  A    between atoms: _428  and  _431
REMARK  173  A    between atoms: _431  and  _432
REMARK  174  A    between atoms: _435  and  _437
REMARK  175  A    between atoms: _437  and  _438
REMARK  176  A    between atoms: _440  and  _442
REMARK  177  A    between atoms: _442  and  _443
REMARK  178  A    between atoms: _445  and  _447
REMARK  179  A    between atoms: _447  and  _448
REMARK  180  A    between atoms: _447  and  _450
REMARK  181  A    between atoms: _453  and  _455
REMARK  182  A    between atoms: _455  and  _456
REMARK  183  A    between atoms: _455  and  _458
REMARK  184  A    between atoms: _458  and  _459
REMARK  185  A    between atoms: _462  and  _464
REMARK  186  A    between atoms: _464  and  _465
REMARK  187  A    between atoms: _464  and  _467
REMARK  188  A    between atoms: _467  and  _468
REMARK  189  A    between atoms: _472  and  _473
REMARK  190  A    between atoms: _478  and  _480
REMARK  191  A    between atoms: _480  and  _481
REMARK  192  A    between atoms: _480  and  _483
REMARK  193  A    between atoms: _483  and  _484
REMARK  194  A    between atoms: _487  and  _489
REMARK  195  A    between atoms: _489  and  _490
REMARK  196  A    between atoms: _489  and  _492
REMARK  197  A    between atoms: _492  and  _493
REMARK  198  A    between atoms: _498  and  _500
REMARK  199  A    between atoms: _500  and  _501
REMARK  200  A    between atoms: _500  and  _503
REMARK  201  A    between atoms: _506  and  _508
REMARK  202  A    between atoms: _508  and  _509
REMARK  203  A    between atoms: _508  and  _511
REMARK  204  A    between atoms: _511  and  _512
REMARK  205  A    between atoms: _515  and  _517
REMARK  206  A    between atoms: _517  and  _518
REMARK  207  A    between atoms: _520  and  _522
REMARK  208  A    between atoms: _522  and  _523
REMARK  209  A    between atoms: _522  and  _525
REMARK  210  A    between atoms: _525  and  _526
REMARK  211  A    between atoms: _526  and  _527
REMARK  212  A    between atoms: _527  and  _528
REMARK  213  A    between atoms: _537  and  _539
REMARK  214  A    between atoms: _539  and  _540
REMARK  215  A    between atoms: _539  and  _542
REMARK  216  A    between atoms: _542  and  _543
REMARK                            x       y       z     vdW  Elec       q    Type
REMARK                         _______ _______ _______ _____ _____    ______ ____
ROOT
ATOM      1  NE  ARG A   1      -4.177  23.346  20.410  0.00  0.00    -0.265 N 
ATOM      2  CZ  ARG A   1      -3.124  22.594  20.082  0.00  0.00    +0.342 C 
ATOM      3  NH2 ARG A   1      -1.930  22.805  20.630  0.00  0.00    -0.292 N 
ATOM      4 HH21 ARG A   1      -1.805  23.567  21.327  0.00  0.00    +0.255 HD
ATOM      5 HH22 ARG A   1      -1.122  22.208  20.361  0.00  0.00    +0.255 HD
ATOM      6  NH1 ARG A   1      -3.266  21.619  19.188  0.00  0.00    -0.292 N 
ATOM      7 HH11 ARG A   1      -2.450  21.029  18.928  0.00  0.00    +0.255 HD
ATOM      8 HH12 ARG A   1      -4.193  21.447  18.749  0.00  0.00    +0.255 HD
ATOM      9  HE  ARG A   1      -5.081  23.121  19.949  0.00  0.00    +0.259 HD
ENDROOT
BRANCH   1  10
ATOM     10  CD  ARG A   1      -4.173  24.463  21.364  0.00  0.00    +0.174 C 
BRANCH  10  11
ATOM     11  CG  ARG A   1      -5.384  25.366  21.071  0.00  0.00    +0.045 C 
BRANCH  11  12
ATOM     12  CB  ARG A   1      -5.336  26.664  21.839  0.00  0.00    +0.029 C 
BRANCH  12  13
ATOM     13  CA  ARG A   1      -6.569  27.527  21.565  0.00  0.00    +0.133 C 
BRANCH  13  14
ATOM     14  N   ARG A   1      -6.470  28.149  20.229  0.00  0.00    -0.239 NA
ATOM     15  H   ARG A   1      -5.670  27.905  19.612  0.00  0.00    +0.142 HD
ENDBRANCH  13  14
BRANCH  13  16
ATOM     16  C   ARG A   1      -6.624  28.650  22.583  0.00  0.00    +0.224 C 
ATOM     17  O   ARG A   1      -5.832  29.598  22.485  0.00  0.00    -0.287 OA
ENDBRANCH  13  16
ENDBRANCH  12  13
ENDBRANCH  11  12
ENDBRANCH  10  11
ENDBRANCH   1  10
TORSDOF 6
REMARK  Name = ../refined-set-2016/3ggu/3ggu_pocket.pdb
REMARK  216 active torsions:
REMARK  status: ('A' for Active; 'I' for Inactive)
REMARK    1  A    between atoms: _1  and  _3
REMARK    2  A    between atoms: _3  and  _4
REMARK    3  A    between atoms: _3  and  _6
REMARK    4  A    between atoms: _6  and  _7
REMARK    5  A    between atoms: _7  and  _8
REMARK    6  A    between atoms: _8  and  _9
REMARK    7  A    between atoms: _18  and  _20
REMARK    8  A    between atoms: _20  and  _21
REMARK    9  A    between atoms: _20  and  _23
REMARK   10  A    between atoms: _23  and  _24
REMARK   11  A    between atoms: _27  and  _29
REMARK   12  A    between atoms: _29  and  _30
REMARK   13  A    between atoms: _29  and  _32
REMARK   14  A    between atoms: _32  and  _33
REMARK   15  A    between atoms: _36  and  _38
REMARK   16  A    between atoms: _38  and  _39
REMARK   17  A    between atoms: _38  and  _41
REMARK   18  A    between atoms: _41  and  _42
REMARK   19  A    between atoms: _45  and  _47
REMARK   20  A    between atoms: _47  and  _48
REMARK   21  A    between atoms: _47  and  _50
REMARK   22  A    between atoms: _50  and  _51
REMARK   23  A    between atoms: _54  and  _56
REMARK   24  A    between atoms: _56  and  _57
REMARK   25  A    between atoms: _59  and  _61
REMARK   26  A    between atoms: _61  and  _62
REMARK   27  A    between atoms: _65  and  _67
REMARK   28  A    between atoms: _67  and  _68
REMARK   29  A    between atoms: _67  and  _70
REMARK   30  A    between atoms: _70  and  _71
REMARK   31  A    between atoms: _74  and  _76
REMARK   32  A    between atoms: _76  and  _77
REMARK   33  A    between atoms: _76  and  _79
REMARK   34  A    between atoms: _79  and  _80
REMARK   35  A    between atoms: _83  and  _85
REMARK   36  A    between atoms: _85  and  _86
REMARK   37  A    between atoms: _85  and  _88
REMARK   38  A    between atoms: _88  and  _89
REMARK   39  A    between atoms: _92  and  _94
REMARK   40  A    between atoms: _94  and  _95
REMARK   41  A    between atoms: _94  and  _97
REMARK   42  A    between atoms: _100  and  _102
REMARK   43  A    between atoms: _102  and  _103
REMARK   44  A    between atoms: _102  and  _105
REMARK   45  A    between atoms: _105  and  _106
REMARK   46  A    between atoms: _106  and  _107
REMARK   47  A    between atoms: _107  and  _108
REMARK   48  A    between atoms: _117  and  _119
REMARK   49  A    between atoms: _119  and  _120
REMARK   50  A    between atoms: _119  and  _122
REMARK   51  A    between atoms: _122  and  _123
REMARK   52  A    between atoms: _126  and  _128
REMARK   53  A    between atoms: _128  and  _129
REMARK   54  A    between atoms: _128  and  _131
REMARK   55  A    between atoms: _131  and  _132
REMARK   56  A    between atoms: _135  and  _137
REMARK   57  A    between atoms: _137  and  _138
REMARK   58  A    between atoms: _140  and  _142
REMARK   59  A    between atoms: _142  and  _143
REMARK   60  A    between atoms: _145  and  _147
REMARK   61  A    between atoms: _147  and  _148
REMARK   62  A    between atoms: _147  and  _150
REMARK   63  A    between atoms: _150  and  _151
REMARK   64  A    between atoms: _154  and  _156
REMARK   65  A    between atoms: _156  and  _157
REMARK   66  A    between atoms: _159  and  _161
REMARK   67  A    between atoms: _161  and  _162
REMARK   68  A    between atoms: _164  and  _166
REMARK   69  A    between atoms: _166  and  _167
REMARK   70  A    between atoms: _166  and  _169
REMARK   71  A    between atoms: _172  and  _174
REMARK   72  A    between atoms: _174  and  _175
REMARK   73  A    between atoms: _174  and  _177
REMARK   74  A    between atoms: _180  and  _182
REMARK   75  A    between atoms: _182  and  _183
REMARK   76  A    between atoms: _182  and  _185
REMARK   77  A    between atoms: _185  and  _186
REMARK   78  A    between atoms: _190  and  _191
REMARK   79  A    between atoms: _196  and  _198
REMARK   80  A    between atoms: _198  and  _199
REMARK   81  A    between atoms: _198  and  _201
REMARK   82  A    between atoms: _201  and  _202
REMARK   83  A    between atoms: _206  and  _207
REMARK   84  A    between atoms: _212  and  _214
REMARK   85  A    between atoms: _214  and  _215
REMARK   86  A    between atoms: _214  and  _217
REMARK   87  A    between atoms: _217  and  _218
REMARK   88  A    between atoms: _221  and  _223
REMARK   89  A    between atoms: _223  and  _224
REMARK   90  A    between atoms: _223  and  _226
REMARK   91  A    between atoms: _226  and  _227
REMARK   92  A    between atoms: _232  and  _234
REMARK   93  A    between atoms: _234  and  _235
REMARK   94  A    between atoms: _234  and  _237
REMARK   95  A    between atoms: _240  and  _242
REMARK   96  A    between atoms: _242  and  _243
REMARK   97  A    between atoms: _242  and  _245
REMARK   98  A    between atoms: _245  and  _246
REMARK   99  A    between atoms: _249  and  _251
REMARK  100  A    between atoms: _251  and  _252
REMARK  101  A    between atoms: _254  and  _256
REMARK  102  A    between atoms: _256  and  _257
REMARK  103  A    between atoms: _256  and  _259
REMARK  104  A    between atoms: _259  and  _260
REMARK  105  A    between atoms: _260  and  _261
REMARK  106  A    between atoms: _261  and  _262
REMARK  107  A    between atoms: _271  and  _273
REMARK  108  A    between atoms: _273  and  _274
REMARK  109  A    between atoms: _273  and  _276
REMARK  110  A    between atoms: _276  and  _277
REMARK  111  A    between atoms: _282  and  _284
REMARK  112  A    between atoms: _284  and  _285
REMARK  113  A    between atoms: _284  and  _287
REMARK  114  A    between atoms: _287  and  _288
REMARK  115  A    between atoms: _288  and  _289
REMARK  116  A    between atoms: _289  and  _290
REMARK  117  A    between atoms: _299  and  _301
REMARK  118  A    between atoms: _301  and  _302
REMARK  119  A    between atoms: _301  and  _304
REMARK  120  A    between atoms: _304  and  _305
REMARK  121  A    between atoms: _308  and  _310
REMARK  122  A    between atoms: _310  and  _311
REMARK  123  A    between atoms: _310  and  _313
REMARK  124  A    between atoms: _313  and  _314
REMARK  125  A    between atoms: _317  and  _319
REMARK  126  A    between atoms: _319  and  _320
REMARK  127  A    between atoms: _319  and  _322
REMARK  128  A    between atoms: _322  and  _323
REMARK  129  A    between atoms: _326  and  _328
REMARK  130  A    between atoms: _328  and  _329
REMARK  131  A    between atoms: _328  and  _331
REMARK  132  A    between atoms: _331  and  _332
REMARK  133  A    between atoms: _335  and  _337
REMARK  134  A    between atoms: _337  and  _338
REMARK  135  A    between atoms: _340  and  _342
REMARK  136  A    between atoms: _342  and  _343
REMARK  137  A    between atoms: _346  and  _348
REMARK  138  A    between atoms: _348  and  _349
REMARK  139  A    between atoms: _348  and  _351
REMARK  140  A    between atoms: _351  and  _352
REMARK  141  A    between atoms: _355  and  _357
REMARK  142  A    between atoms: _357  and  _358
REMARK  143  A    between atoms: _357  and  _360
REMARK  144  A    between atoms: _360  and  _361
REMARK  145  A    between atoms: _364  and  _366
REMARK  146  A    between atoms: _366  and  _367
REMARK  147  A    between atoms: _366  and  _369
REMARK  148  A    between atoms: _369  and  _370
REMARK  149  A    between atoms: _373  and  _375
REMARK  150  A    between atoms: _375  and  _376
REMARK  151  A    between atoms: _375  and  _378
REMARK  152  A    between atoms: _381  and  _383
REMARK  153  A    between atoms: _383  and  _384
REMARK  154  A    between atoms: _383  and  _386
REMARK  155  A    between atoms: _386  and  _387
REMARK  156  A    between atoms: _387  and  _388
REMARK  157  A    between atoms: _388  and  _389
REMARK  158  A    between atoms: _398  and  _400
REMARK  159  A    between atoms: _400  and  _401
REMARK  160  A    between atoms: _400  and  _403
REMARK  161  A    between atoms: _403  and  _404
REMARK  162  A    between atoms: _407  and  _409
REMARK  163  A    between atoms: _409  and  _410
REMARK  164  A    between atoms: _409  and  _412
REMARK  165  A    between atoms: _412  and  _413
REMARK  166  A    between atoms: _416  and  _418
REMARK  167  A    between atoms: _418  and  _419
REMARK  168  A    between atoms: _421  and  _423
REMARK  169  A    between atoms: _423  and  _424
REMARK  170  A    between atoms: _426  and  _428
REMARK  171  A    between atoms: _428  and  _429
REMARK  172  A    between atoms: _428  and  _431
REMARK  173  A    between atoms: _431  and  _432
REMARK  174  A    between atoms: _435  and  _437
REMARK  175  A    between atoms: _437  and  _438
REMARK  176  A    between atoms: _440  and  _442
REMARK  177  A    between atoms: _442  and  _443
REMARK  178  A    between atoms: _445  and  _447
REMARK  179  A    between atoms: _447  and  _448
REMARK  180  A    between atoms: _447  and  _450
REMARK  181  A    between atoms: _453  and  _455
REMARK  182  A    between atoms: _455  and  _456
REMARK  183  A    between atoms: _455  and  _458
REMARK  184  A    between atoms: _458  and  _459
REMARK  185  A    between atoms: _462  and  _464
REMARK  186  A    between atoms: _464  and  _465
REMARK  187  A    between atoms: _464  and  _467
REMARK  188  A    between atoms: _467  and  _468
REMARK  189  A    between atoms: _472  and  _473
REMARK  190  A    between atoms: _478  and  _480
REMARK  191  A    between atoms: _480  and  _481
REMARK  192  A    between atoms: _480  and  _483
REMARK  193  A    between atoms: _483  and  _484
REMARK  194  A    between atoms: _487  and  _489
REMARK  195  A    between atoms: _489  and  _490
REMARK  196  A    between atoms: _489  and  _492
REMARK  197  A    between atoms: _492  and  _493
REMARK  198  A    between atoms: _498  and  _500
REMARK  199  A    between atoms: _500  and  _501
REMARK  200  A    between atoms: _500  and  _503
REMARK  201  A    between atoms: _506  and  _508
REMARK  202  A    between atoms: _508  and  _509
REMARK  203  A    between atoms: _508  and  _511
REMARK  204  A    between atoms: _511  and  _512
REMARK  205  A    between atoms: _515  and  _517
REMARK  206  A    between atoms: _517  and  _518
REMARK  207  A    between atoms: _520  and  _522
REMARK  208  A    between atoms: _522  and  _523
REMARK  209  A    between atoms: _522  and  _525
REMARK  210  A    between atoms: _525  and  _526
REMARK  211  A    between atoms: _526  and  _527
REMARK  212  A    between atoms: _527  and  _528
REMARK  213  A    between atoms: _537  and  _539
REMARK  214  A    between atoms: _539  and  _540
REMARK  215  A    between atoms: _539  and  _542
REMARK  216  A    between atoms: _542  and  _543
REMARK                            x       y       z     vdW  Elec       q    Type
REMARK                         _______ _______ _______ _____ _____    ______ ____
ROOT
ATOM      1  C   GLY A   5     -13.517  18.972  29.829  0.00  0.00    +0.243 C 
ATOM      2  N   ALA A   6     -12.806  19.766  30.625  0.00  0.00    -0.297 N 
ATOM      3  H   ALA A   6     -12.768  20.783  30.412  0.00  0.00    +0.150 HD
ATOM      4  O   GLY A   5     -13.598  17.756  30.009  0.00  0.00    -0.273 OA
ENDROOT
BRANCH   2   5
ATOM      5  CA  ALA A   6     -12.073  19.262  31.792  0.00  0.00    +0.149 C 
ATOM      6  CB  ALA A   6     -10.664  19.885  31.833  0.00  0.00    +0.031 C 
BRANCH   5   7
ATOM      7  C   ALA A   6     -12.831  19.526  33.102  0.00  0.00    +0.241 C 
ATOM      8  N   ASP A   7     -13.153  18.467  33.856  0.00  0.00    -0.297 N 
ATOM      9  H   ASP A   7     -12.947  17.512  33.500  0.00  0.00    +0.150 HD
ATOM     10  O   ALA A   6     -13.158  20.669  33.403  0.00  0.00    -0.273 OA
BRANCH   8  11
ATOM     11  CA  ASP A   7     -13.788  18.618  35.170  0.00  0.00    +0.160 C 
BRANCH  11  12
ATOM     12  C   ASP A   7     -12.841  19.288  36.149  0.00  0.00    +0.241 C 
ATOM     13  O   ASP A   7     -13.262  20.114  36.975  0.00  0.00    -0.273 OA
ATOM     14  N   ASP A   8     -11.567  18.908  36.026  0.00  0.00    -0.297 N 
ATOM     15  H   ASP A   8     -11.323  18.305  35.215  0.00  0.00    +0.150 HD
BRANCH  14  16
ATOM     16  CA  ASP A   8     -10.483  19.276  36.948  0.00  0.00    +0.160 C 
BRANCH  16  17
ATOM     17  C   ASP A   8      -9.344  20.050  36.268  0.00  0.00    +0.241 C 
ATOM     18  N   THR A   9      -8.591  20.780  37.076  0.00  0.00    -0.295 N 
ATOM     19  H   THR A   9      -8.821  20.812  38.090  0.00  0.00    +0.150 HD
ATOM     20  O   ASP A   8      -9.137  19.985  35.053  0.00  0.00    -0.273 OA
BRANCH  18  21
ATOM     21  CA  THR A   9      -7.447  21.541  36.584  0.00  0.00    +0.176 C 
BRANCH  21  22
ATOM     22  C   THR A   9      -6.217  20.637  36.675  0.00  0.00    +0.243 C 
ATOM     23  O   THR A   9      -5.973  20.025  37.704  0.00  0.00    -0.273 OA
ATOM     24  N   VAL A  10      -5.442  20.544  35.599  0.00  0.00    -0.298 N 
ATOM     25  H   VAL A  10      -5.629  21.150  34.775  0.00  0.00    +0.150 HD
BRANCH  24  26
ATOM     26  CA  VAL A  10      -4.331  19.599  35.565  0.00  0.00    +0.137 C 
BRANCH  26  27
ATOM     27  CB  VAL A  10      -4.650  18.335  34.717  0.00  0.00    +0.026 C 
ATOM     28  CG2 VAL A  10      -6.025  17.771  35.070  0.00  0.00    +0.002 C 
ATOM     29  CG1 VAL A  10      -3.564  17.259  34.942  0.00  0.00    +0.002 C 
ENDBRANCH  26  27
BRANCH  26  30
ATOM     30  C   VAL A  10      -3.090  20.264  34.986  0.00  0.00    +0.227 C 
ATOM     31  O   VAL A  10      -3.176  20.904  33.940  0.00  0.00    -0.286 OA
ENDBRANCH  26  30
ENDBRANCH  24  26
ENDBRANCH  21  22
BRANCH  21  32
ATOM     32  CB  THR A   9      -7.286  22.831  37.415  0.00  0.00    +0.137 C 
ATOM     33  CG2 THR A   9      -5.975  23.522  37.122  0.00  0.00    +0.034 C 
BRANCH  32  34
ATOM     34  OG1 THR A   9      -8.371  23.725  37.100  0.00  0.00    -0.382 OA
ATOM     35  HG1 THR A   9      -9.232  23.288  37.321  0.00  0.00    +0.210 HD
ENDBRANCH  32  34
ENDBRANCH  21  32
ENDBRANCH  18  21
ENDBRANCH  16  17
BRANCH  16  36
ATOM     36  CB  ASP A   8      -9.858  18.018  37.572  0.00  0.00    +0.143 C 
BRANCH  36  37
ATOM     37  CG  ASP A   8     -10.888  16.959  37.978  0.00  0.00    +0.367 C 
ATOM     38  OD2 ASP A   8     -11.750  17.263  38.834  0.00  0.00    -0.246 OA
ATOM     39  OD1 ASP A   8     -10.811  15.803  37.470  0.00  0.00    -0.246 OA
ENDBRANCH  36  37
ENDBRANCH  16  36
ENDBRANCH  14  16
ENDBRANCH  11  12
BRANCH  11  40
ATOM     40  CB  ASP A   7     -14.178  17.253  35.747  0.00  0.00    +0.143 C 
BRANCH  40  41
ATOM     41  CG  ASP A   7     -15.244  16.535  34.931  0.00  0.00    +0.367 C 
ATOM     42  OD2 ASP A   7     -15.469  15.346  35.242  0.00  0.00    -0.246 OA
ATOM     43  OD1 ASP A   7     -15.884  17.150  34.060  0.00  0.00    -0.246 OA
ENDBRANCH  40  41
ENDBRANCH  11  40
ENDBRANCH   8  11
ENDBRANCH   5   7
ENDBRANCH   2   5
BRANCH   1  44
ATOM     44  CA  GLY A   5     -14.275  19.633  28.686  0.00  0.00    +0.176 C 
BRANCH  44  47
ATOM     45  C   THR A   4     -14.970  21.883  29.381  0.00  0.00    +0.243 C 
ATOM     46  O   THR A   4     -15.891  21.446  30.058  0.00  0.00    -0.273 OA
ATOM     47  N   GLY A   5     -14.133  21.103  28.692  0.00  0.00    -0.295 N 
ATOM     48  H   GLY A   5     -13.363  21.541  28.147  0.00  0.00    +0.150 HD
BRANCH  45  49
ATOM     49  CA  THR A   4     -14.700  23.385  29.326  0.00  0.00    +0.176 C 
BRANCH  49  52
ATOM     50  C   ASP A   3     -12.249  23.405  29.559  0.00  0.00    +0.241 C 
ATOM     51  O   ASP A   3     -12.298  22.791  30.625  0.00  0.00    -0.273 OA
ATOM     52  N   THR A   4     -13.335  23.698  28.843  0.00  0.00    -0.295 N 
ATOM     53  H   THR A   4     -13.220  24.160  27.918  0.00  0.00    +0.150 HD
BRANCH  50  54
ATOM     54  CA  ASP A   3     -10.886  23.809  28.963  0.00  0.00    +0.160 C 
BRANCH  54  56
ATOM     55  C   LEU A   2     -10.043  26.069  28.739  0.00  0.00    +0.241 C 
ATOM     56  N   ASP A   3     -10.382  25.057  29.535  0.00  0.00    -0.297 N 
ATOM     57  H   ASP A   3     -10.288  25.154  30.566  0.00  0.00    +0.150 HD
ATOM     58  O   LEU A   2     -10.396  26.131  27.549  0.00  0.00    -0.273 OA
BRANCH  55  59
ATOM     59  CA  LEU A   2      -9.188  27.169  29.368  0.00  0.00    +0.149 C 
BRANCH  59  62
ATOM     60  C   LEU A   1      -7.014  26.073  29.046  0.00  0.00    +0.238 C 
ATOM     61  O   LEU A   1      -7.265  25.215  29.918  0.00  0.00    -0.274 OA
ATOM     62  N   LEU A   2      -7.837  27.097  28.778  0.00  0.00    -0.297 N 
ATOM     63  H   LEU A   2      -7.517  27.855  28.142  0.00  0.00    +0.150 HD
BRANCH  60  64
ATOM     64  CA  LEU A   1      -5.718  25.970  28.207  0.00  0.00    +0.145 C 
BRANCH  64  65
ATOM     65  N   LEU A   1      -4.607  25.862  29.096  0.00  0.00    -0.238 NA
ATOM     66  H   LEU A   1      -4.333  24.920  29.442  0.00  0.00    +0.142 HD
ENDBRANCH  64  65
BRANCH  64  67
ATOM     67  CB  LEU A   1      -5.687  24.712  27.335  0.00  0.00    +0.026 C 
BRANCH  67  68
ATOM     68  CG  LEU A   1      -6.667  24.396  26.216  0.00  0.00    +0.002 C 
ATOM     69  CD2 LEU A   1      -6.334  23.015  25.657  0.00  0.00    +0.000 C 
ATOM     70  CD1 LEU A   1      -6.480  25.393  25.128  0.00  0.00    +0.000 C 
ENDBRANCH  67  68
ENDBRANCH  64  67
ENDBRANCH  60  64
ENDBRANCH  59  62
BRANCH  59  71
ATOM     71  CB  LEU A   2      -9.843  28.521  29.136  0.00  0.00    +0.029 C 
BRANCH  71  72
ATOM     72  CG  LEU A   2      -9.262  29.738  29.859  0.00  0.00    +0.002 C 
ATOM     73  CD2 LEU A   2      -9.363  29.546  31.392  0.00  0.00    +0.000 C 
ATOM     74  CD1 LEU A   2     -10.031  30.968  29.354  0.00  0.00    +0.000 C 
ENDBRANCH  71  72
ENDBRANCH  59  71
ENDBRANCH  55  59
ENDBRANCH  54  56
BRANCH  54  75
ATOM     75  CB  ASP A   3      -9.855  22.704  29.216  0.00  0.00    +0.143 C 
BRANCH  75  76
ATOM     76  CG  ASP A   3     -10.199  21.402  28.507  0.00  0.00    +0.367 C 
ATOM     77  OD2 ASP A   3      -9.376  20.473  28.557  0.00  0.00    -0.246 OA
ATOM     78  OD1 ASP A   3     -11.299  21.293  27.915  0.00  0.00    -0.246 OA
ENDBRANCH  75  76
ENDBRANCH  54  75
ENDBRANCH  50  54
ENDBRANCH  49  52
BRANCH  49  79
ATOM     79  CB  THR A   4     -15.780  24.090  28.511  0.00  0.00    +0.137 C 
ATOM     80  CG2 THR A   4     -15.606  25.610  28.622  0.00  0.00    +0.034 C 
BRANCH  79  81
ATOM     81  OG1 THR A   4     -15.628  23.733  27.137  0.00  0.00    -0.382 OA
ATOM     82  HG1 THR A   4     -15.721  22.752  27.040  0.00  0.00    +0.210 HD
ENDBRANCH  79  81
ENDBRANCH  49  79
ENDBRANCH  45  49
ENDBRANCH  44  47
ENDBRANCH   1  44
TORSDOF 35
REMARK  Name = ../refined-set-2016/3ggu/3ggu_pocket.pdb
REMARK  216 active torsions:
REMARK  status: ('A' for Active; 'I' for Inactive)
REMARK    1  A    between atoms: _1  and  _3
REMARK    2  A    between atoms: _3  and  _4
REMARK    3  A    between atoms: _3  and  _6
REMARK    4  A    between atoms: _6  and  _7
REMARK    5  A    between atoms: _7  and  _8
REMARK    6  A    between atoms: _8  and  _9
REMARK    7  A    between atoms: _18  and  _20
REMARK    8  A    between atoms: _20  and  _21
REMARK    9  A    between atoms: _20  and  _23
REMARK   10  A    between atoms: _23  and  _24
REMARK   11  A    between atoms: _27  and  _29
REMARK   12  A    between atoms: _29  and  _30
REMARK   13  A    between atoms: _29  and  _32
REMARK   14  A    between atoms: _32  and  _33
REMARK   15  A    between atoms: _36  and  _38
REMARK   16  A    between atoms: _38  and  _39
REMARK   17  A    between atoms: _38  and  _41
REMARK   18  A    between atoms: _41  and  _42
REMARK   19  A    between atoms: _45  and  _47
REMARK   20  A    between atoms: _47  and  _48
REMARK   21  A    between atoms: _47  and  _50
REMARK   22  A    between atoms: _50  and  _51
REMARK   23  A    between atoms: _54  and  _56
REMARK   24  A    between atoms: _56  and  _57
REMARK   25  A    between atoms: _59  and  _61
REMARK   26  A    between atoms: _61  and  _62
REMARK   27  A    between atoms: _65  and  _67
REMARK   28  A    between atoms: _67  and  _68
REMARK   29  A    between atoms: _67  and  _70
REMARK   30  A    between atoms: _70  and  _71
REMARK   31  A    between atoms: _74  and  _76
REMARK   32  A    between atoms: _76  and  _77
REMARK   33  A    between atoms: _76  and  _79
REMARK   34  A    between atoms: _79  and  _80
REMARK   35  A    between atoms: _83  and  _85
REMARK   36  A    between atoms: _85  and  _86
REMARK   37  A    between atoms: _85  and  _88
REMARK   38  A    between atoms: _88  and  _89
REMARK   39  A    between atoms: _92  and  _94
REMARK   40  A    between atoms: _94  and  _95
REMARK   41  A    between atoms: _94  and  _97
REMARK   42  A    between atoms: _100  and  _102
REMARK   43  A    between atoms: _102  and  _103
REMARK   44  A    between atoms: _102  and  _105
REMARK   45  A    between atoms: _105  and  _106
REMARK   46  A    between atoms: _106  and  _107
REMARK   47  A    between atoms: _107  and  _108
REMARK   48  A    between atoms: _117  and  _119
REMARK   49  A    between atoms: _119  and  _120
REMARK   50  A    between atoms: _119  and  _122
REMARK   51  A    between atoms: _122  and  _123
REMARK   52  A    between atoms: _126  and  _128
REMARK   53  A    between atoms: _128  and  _129
REMARK   54  A    between atoms: _128  and  _131
REMARK   55  A    between atoms: _131  and  _132
REMARK   56  A    between atoms: _135  and  _137
REMARK   57  A    between atoms: _137  and  _138
REMARK   58  A    between atoms: _140  and  _142
REMARK   59  A    between atoms: _142  and  _143
REMARK   60  A    between atoms: _145  and  _147
REMARK   61  A    between atoms: _147  and  _148
REMARK   62  A    between atoms: _147  and  _150
REMARK   63  A    between atoms: _150  and  _151
REMARK   64  A    between atoms: _154  and  _156
REMARK   65  A    between atoms: _156  and  _157
REMARK   66  A    between atoms: _159  and  _161
REMARK   67  A    between atoms: _161  and  _162
REMARK   68  A    between atoms: _164  and  _166
REMARK   69  A    between atoms: _166  and  _167
REMARK   70  A    between atoms: _166  and  _169
REMARK   71  A    between atoms: _172  and  _174
REMARK   72  A    between atoms: _174  and  _175
REMARK   73  A    between atoms: _174  and  _177
REMARK   74  A    between atoms: _180  and  _182
REMARK   75  A    between atoms: _182  and  _183
REMARK   76  A    between atoms: _182  and  _185
REMARK   77  A    between atoms: _185  and  _186
REMARK   78  A    between atoms: _190  and  _191
REMARK   79  A    between atoms: _196  and  _198
REMARK   80  A    between atoms: _198  and  _199
REMARK   81  A    between atoms: _198  and  _201
REMARK   82  A    between atoms: _201  and  _202
REMARK   83  A    between atoms: _206  and  _207
REMARK   84  A    between atoms: _212  and  _214
REMARK   85  A    between atoms: _214  and  _215
REMARK   86  A    between atoms: _214  and  _217
REMARK   87  A    between atoms: _217  and  _218
REMARK   88  A    between atoms: _221  and  _223
REMARK   89  A    between atoms: _223  and  _224
REMARK   90  A    between atoms: _223  and  _226
REMARK   91  A    between atoms: _226  and  _227
REMARK   92  A    between atoms: _232  and  _234
REMARK   93  A    between atoms: _234  and  _235
REMARK   94  A    between atoms: _234  and  _237
REMARK   95  A    between atoms: _240  and  _242
REMARK   96  A    between atoms: _242  and  _243
REMARK   97  A    between atoms: _242  and  _245
REMARK   98  A    between atoms: _245  and  _246
REMARK   99  A    between atoms: _249  and  _251
REMARK  100  A    between atoms: _251  and  _252
REMARK  101  A    between atoms: _254  and  _256
REMARK  102  A    between atoms: _256  and  _257
REMARK  103  A    between atoms: _256  and  _259
REMARK  104  A    between atoms: _259  and  _260
REMARK  105  A    between atoms: _260  and  _261
REMARK  106  A    between atoms: _261  and  _262
REMARK  107  A    between atoms: _271  and  _273
REMARK  108  A    between atoms: _273  and  _274
REMARK  109  A    between atoms: _273  and  _276
REMARK  110  A    between atoms: _276  and  _277
REMARK  111  A    between atoms: _282  and  _284
REMARK  112  A    between atoms: _284  and  _285
REMARK  113  A    between atoms: _284  and  _287
REMARK  114  A    between atoms: _287  and  _288
REMARK  115  A    between atoms: _288  and  _289
REMARK  116  A    between atoms: _289  and  _290
REMARK  117  A    between atoms: _299  and  _301
REMARK  118  A    between atoms: _301  and  _302
REMARK  119  A    between atoms: _301  and  _304
REMARK  120  A    between atoms: _304  and  _305
REMARK  121  A    between atoms: _308  and  _310
REMARK  122  A    between atoms: _310  and  _311
REMARK  123  A    between atoms: _310  and  _313
REMARK  124  A    between atoms: _313  and  _314
REMARK  125  A    between atoms: _317  and  _319
REMARK  126  A    between atoms: _319  and  _320
REMARK  127  A    between atoms: _319  and  _322
REMARK  128  A    between atoms: _322  and  _323
REMARK  129  A    between atoms: _326  and  _328
REMARK  130  A    between atoms: _328  and  _329
REMARK  131  A    between atoms: _328  and  _331
REMARK  132  A    between atoms: _331  and  _332
REMARK  133  A    between atoms: _335  and  _337
REMARK  134  A    between atoms: _337  and  _338
REMARK  135  A    between atoms: _340  and  _342
REMARK  136  A    between atoms: _342  and  _343
REMARK  137  A    between atoms: _346  and  _348
REMARK  138  A    between atoms: _348  and  _349
REMARK  139  A    between atoms: _348  and  _351
REMARK  140  A    between atoms: _351  and  _352
REMARK  141  A    between atoms: _355  and  _357
REMARK  142  A    between atoms: _357  and  _358
REMARK  143  A    between atoms: _357  and  _360
REMARK  144  A    between atoms: _360  and  _361
REMARK  145  A    between atoms: _364  and  _366
REMARK  146  A    between atoms: _366  and  _367
REMARK  147  A    between atoms: _366  and  _369
REMARK  148  A    between atoms: _369  and  _370
REMARK  149  A    between atoms: _373  and  _375
REMARK  150  A    between atoms: _375  and  _376
REMARK  151  A    between atoms: _375  and  _378
REMARK  152  A    between atoms: _381  and  _383
REMARK  153  A    between atoms: _383  and  _384
REMARK  154  A    between atoms: _383  and  _386
REMARK  155  A    between atoms: _386  and  _387
REMARK  156  A    between atoms: _387  and  _388
REMARK  157  A    between atoms: _388  and  _389
REMARK  158  A    between atoms: _398  and  _400
REMARK  159  A    between atoms: _400  and  _401
REMARK  160  A    between atoms: _400  and  _403
REMARK  161  A    between atoms: _403  and  _404
REMARK  162  A    between atoms: _407  and  _409
REMARK  163  A    between atoms: _409  and  _410
REMARK  164  A    between atoms: _409  and  _412
REMARK  165  A    between atoms: _412  and  _413
REMARK  166  A    between atoms: _416  and  _418
REMARK  167  A    between atoms: _418  and  _419
REMARK  168  A    between atoms: _421  and  _423
REMARK  169  A    between atoms: _423  and  _424
REMARK  170  A    between atoms: _426  and  _428
REMARK  171  A    between atoms: _428  and  _429
REMARK  172  A    between atoms: _428  and  _431
REMARK  173  A    between atoms: _431  and  _432
REMARK  174  A    between atoms: _435  and  _437
REMARK  175  A    between atoms: _437  and  _438
REMARK  176  A    between atoms: _440  and  _442
REMARK  177  A    between atoms: _442  and  _443
REMARK  178  A    between atoms: _445  and  _447
REMARK  179  A    between atoms: _447  and  _448
REMARK  180  A    between atoms: _447  and  _450
REMARK  181  A    between atoms: _453  and  _455
REMARK  182  A    between atoms: _455  and  _456
REMARK  183  A    between atoms: _455  and  _458
REMARK  184  A    between atoms: _458  and  _459
REMARK  185  A    between atoms: _462  and  _464
REMARK  186  A    between atoms: _464  and  _465
REMARK  187  A    between atoms: _464  and  _467
REMARK  188  A    between atoms: _467  and  _468
REMARK  189  A    between atoms: _472  and  _473
REMARK  190  A    between atoms: _478  and  _480
REMARK  191  A    between atoms: _480  and  _481
REMARK  192  A    between atoms: _480  and  _483
REMARK  193  A    between atoms: _483  and  _484
REMARK  194  A    between atoms: _487  and  _489
REMARK  195  A    between atoms: _489  and  _490
REMARK  196  A    between atoms: _489  and  _492
REMARK  197  A    between atoms: _492  and  _493
REMARK  198  A    between atoms: _498  and  _500
REMARK  199  A    between atoms: _500  and  _501
REMARK  200  A    between atoms: _500  and  _503
REMARK  201  A    between atoms: _506  and  _508
REMARK  202  A    between atoms: _508  and  _509
REMARK  203  A    between atoms: _508  and  _511
REMARK  204  A    between atoms: _511  and  _512
REMARK  205  A    between atoms: _515  and  _517
REMARK  206  A    between atoms: _517  and  _518
REMARK  207  A    between atoms: _520  and  _522
REMARK  208  A    between atoms: _522  and  _523
REMARK  209  A    between atoms: _522  and  _525
REMARK  210  A    between atoms: _525  and  _526
REMARK  211  A    between atoms: _526  and  _527
REMARK  212  A    between atoms: _527  and  _528
REMARK  213  A    between atoms: _537  and  _539
REMARK  214  A    between atoms: _539  and  _540
REMARK  215  A    between atoms: _539  and  _542
REMARK  216  A    between atoms: _542  and  _543
REMARK                            x       y       z     vdW  Elec       q    Type
REMARK                         _______ _______ _______ _____ _____    ______ ____
ROOT
ATOM      1  CA  ILE A   3      -7.996  10.461  35.724  0.00  0.00    +0.149 C 
ENDROOT
BRANCH   1   4
ATOM      2  C   LEU A   2      -7.407   9.128  37.678  0.00  0.00    +0.241 C 
ATOM      3  O   LEU A   2      -8.583   9.044  38.063  0.00  0.00    -0.273 OA
ATOM      4  N   ILE A   3      -7.029   9.836  36.621  0.00  0.00    -0.297 N 
ATOM      5  H   ILE A   3      -6.014   9.949  36.426  0.00  0.00    +0.150 HD
BRANCH   2   6
ATOM      6  CA  LEU A   2      -6.304   8.406  38.419  0.00  0.00    +0.149 C 
BRANCH   6   9
ATOM      7  C   ARG A   1      -5.400   9.380  40.443  0.00  0.00    +0.238 C 
ATOM      8  O   ARG A   1      -4.300   9.536  39.921  0.00  0.00    -0.274 OA
ATOM      9  N   LEU A   2      -6.398   8.758  39.826  0.00  0.00    -0.297 N 
ATOM     10  H   LEU A   2      -7.260   8.519  40.357  0.00  0.00    +0.150 HD
BRANCH   7  11
ATOM     11  CA  ARG A   1      -5.663   9.858  41.872  0.00  0.00    +0.145 C 
BRANCH  11  12
ATOM     12  N   ARG A   1      -4.415   9.867  42.622  0.00  0.00    -0.238 NA
ATOM     13  H   ARG A   1      -3.531  10.098  42.125  0.00  0.00    +0.142 HD
ENDBRANCH  11  12
BRANCH  11  14
ATOM     14  CB  ARG A   1      -6.271  11.267  41.898  0.00  0.00    +0.030 C 
BRANCH  14  15
ATOM     15  CG  ARG A   1      -7.632  11.444  41.215  0.00  0.00    +0.045 C 
BRANCH  15  16
ATOM     16  CD  ARG A   1      -8.270  12.759  41.673  0.00  0.00    +0.174 C 
BRANCH  16  17
ATOM     17  NE  ARG A   1      -9.239  13.297  40.711  0.00  0.00    -0.265 N 
ATOM     18  CZ  ARG A   1     -10.113  14.267  40.985  0.00  0.00    +0.342 C 
ATOM     19  NH2 ARG A   1     -10.165  14.820  42.200  0.00  0.00    -0.292 N 
ATOM     20 HH21 ARG A   1      -9.519  14.495  42.947  0.00  0.00    +0.255 HD
ATOM     21 HH22 ARG A   1     -10.852  15.575  42.399  0.00  0.00    +0.255 HD
ATOM     22  NH1 ARG A   1     -10.950  14.681  40.038  0.00  0.00    -0.292 N 
ATOM     23 HH11 ARG A   1     -11.635  15.437  40.243  0.00  0.00    +0.255 HD
ATOM     24 HH12 ARG A   1     -10.920  14.249  39.092  0.00  0.00    +0.255 HD
ATOM     25  HE  ARG A   1      -9.245  12.895  39.752  0.00  0.00    +0.259 HD
ENDBRANCH  16  17
ENDBRANCH  15  16
ENDBRANCH  14  15
ENDBRANCH  11  14
ENDBRANCH   7  11
ENDBRANCH   6   9
BRANCH   6  26
ATOM     26  CB  LEU A   2      -6.438   6.886  38.186  0.00  0.00    +0.029 C 
BRANCH  26  27
ATOM     27  CG  LEU A   2      -5.602   5.834  38.931  0.00  0.00    +0.002 C 
ATOM     28  CD2 LEU A   2      -4.114   6.081  38.827  0.00  0.00    +0.000 C 
ATOM     29  CD1 LEU A   2      -5.919   4.466  38.369  0.00  0.00    +0.000 C 
ENDBRANCH  26  27
ENDBRANCH   6  26
ENDBRANCH   2   6
ENDBRANCH   1   4
BRANCH   1  30
ATOM     30  C   ILE A   3      -7.928   9.845  34.326  0.00  0.00    +0.241 C 
ATOM     31  O   ILE A   3      -6.870   9.390  33.889  0.00  0.00    -0.273 OA
ATOM     32  N   GLY A   4      -9.066   9.834  33.640  0.00  0.00    -0.295 N 
ATOM     33  H   GLY A   4      -9.913  10.263  34.065  0.00  0.00    +0.150 HD
BRANCH  32  34
ATOM     34  CA  GLY A   4      -9.169   9.241  32.311  0.00  0.00    +0.176 C 
BRANCH  34  35
ATOM     35  C   GLY A   4      -9.518  10.268  31.250  0.00  0.00    +0.243 C 
ATOM     36  O   GLY A   4     -10.454  11.063  31.409  0.00  0.00    -0.273 OA
ATOM     37  N   GLY A   5      -8.765  10.252  30.160  0.00  0.00    -0.295 N 
ATOM     38  H   GLY A   5      -7.953   9.604  30.111  0.00  0.00    +0.150 HD
BRANCH  37  39
ATOM     39  CA  GLY A   5      -9.049  11.118  29.036  0.00  0.00    +0.176 C 
BRANCH  39  40
ATOM     40  C   GLY A   5      -9.124  10.275  27.798  0.00  0.00    +0.243 C 
ATOM     41  O   GLY A   5      -9.334   9.058  27.877  0.00  0.00    -0.273 OA
ATOM     42  N   ILE A   6      -8.976  10.919  26.641  0.00  0.00    -0.297 N 
ATOM     43  H   ILE A   6      -8.974  11.959  26.642  0.00  0.00    +0.150 HD
BRANCH  42  44
ATOM     44  CA  ILE A   6      -8.817  10.214  25.371  0.00  0.00    +0.149 C 
BRANCH  44  45
ATOM     45  C   ILE A   6      -7.474   9.490  25.384  0.00  0.00    +0.241 C 
ATOM     46  O   ILE A   6      -6.463  10.045  25.809  0.00  0.00    -0.273 OA
ATOM     47  N   GLY A   7      -7.467   8.248  24.920  0.00  0.00    -0.295 N 
ATOM     48  H   GLY A   7      -8.352   7.820  24.581  0.00  0.00    +0.150 HD
BRANCH  47  49
ATOM     49  CA  GLY A   7      -6.235   7.480  24.880  0.00  0.00    +0.176 C 
BRANCH  49  50
ATOM     50  C   GLY A   7      -5.991   6.587  26.084  0.00  0.00    +0.243 C 
ATOM     51  N   GLY A   8      -6.507   6.967  27.253  0.00  0.00    -0.296 N 
ATOM     52  H   GLY A   8      -7.077   7.834  27.317  0.00  0.00    +0.150 HD
ATOM     53  O   GLY A   7      -5.331   5.554  25.956  0.00  0.00    -0.273 OA
BRANCH  51  54
ATOM     54  CA  GLY A   8      -6.264   6.152  28.449  0.00  0.00    +0.163 C 
BRANCH  54  55
ATOM     55  C   GLY A   8      -6.261   6.932  29.752  0.00  0.00    +0.229 C 
ATOM     56  O   GLY A   8      -6.852   8.008  29.829  0.00  0.00    -0.286 OA
ENDBRANCH  54  55
ENDBRANCH  51  54
ENDBRANCH  49  50
ENDBRANCH  47  49
ENDBRANCH  44  45
BRANCH  44  57
ATOM     57  CB  ILE A   6      -8.889  11.176  24.151  0.00  0.00    +0.027 C 
ATOM     58  CG2 ILE A   6      -7.952  10.709  23.018  0.00  0.00    +0.002 C 
BRANCH  57  59
ATOM     59  CG1 ILE A   6     -10.320  11.231  23.604  0.00  0.00    +0.002 C 
ATOM     60  CD1 ILE A   6     -10.562  12.320  22.548  0.00  0.00    +0.000 C 
ENDBRANCH  57  59
ENDBRANCH  44  57
ENDBRANCH  42  44
ENDBRANCH  39  40
ENDBRANCH  37  39
ENDBRANCH  34  35
ENDBRANCH  32  34
ENDBRANCH   1  30
BRANCH   1  61
ATOM     61  CB  ILE A   3      -7.851  12.025  35.688  0.00  0.00    +0.027 C 
ATOM     62  CG2 ILE A   3      -8.228  12.607  37.075  0.00  0.00    +0.002 C 
BRANCH  61  63
ATOM     63  CG1 ILE A   3      -6.449  12.434  35.238  0.00  0.00    +0.002 C 
ATOM     64  CD1 ILE A   3      -6.213  13.937  35.141  0.00  0.00    +0.000 C 
ENDBRANCH  61  63
ENDBRANCH   1  61
TORSDOF 26
REMARK  Name = ../refined-set-2016/3ggu/3ggu_pocket.pdb
REMARK  216 active torsions:
REMARK  status: ('A' for Active; 'I' for Inactive)
REMARK    1  A    between atoms: _1  and  _3
REMARK    2  A    between atoms: _3  and  _4
REMARK    3  A    between atoms: _3  and  _6
REMARK    4  A    between atoms: _6  and  _7
REMARK    5  A    between atoms: _7  and  _8
REMARK    6  A    between atoms: _8  and  _9
REMARK    7  A    between atoms: _18  and  _20
REMARK    8  A    between atoms: _20  and  _21
REMARK    9  A    between atoms: _20  and  _23
REMARK   10  A    between atoms: _23  and  _24
REMARK   11  A    between atoms: _27  and  _29
REMARK   12  A    between atoms: _29  and  _30
REMARK   13  A    between atoms: _29  and  _32
REMARK   14  A    between atoms: _32  and  _33
REMARK   15  A    between atoms: _36  and  _38
REMARK   16  A    between atoms: _38  and  _39
REMARK   17  A    between atoms: _38  and  _41
REMARK   18  A    between atoms: _41  and  _42
REMARK   19  A    between atoms: _45  and  _47
REMARK   20  A    between atoms: _47  and  _48
REMARK   21  A    between atoms: _47  and  _50
REMARK   22  A    between atoms: _50  and  _51
REMARK   23  A    between atoms: _54  and  _56
REMARK   24  A    between atoms: _56  and  _57
REMARK   25  A    between atoms: _59  and  _61
REMARK   26  A    between atoms: _61  and  _62
REMARK   27  A    between atoms: _65  and  _67
REMARK   28  A    between atoms: _67  and  _68
REMARK   29  A    between atoms: _67  and  _70
REMARK   30  A    between atoms: _70  and  _71
REMARK   31  A    between atoms: _74  and  _76
REMARK   32  A    between atoms: _76  and  _77
REMARK   33  A    between atoms: _76  and  _79
REMARK   34  A    between atoms: _79  and  _80
REMARK   35  A    between atoms: _83  and  _85
REMARK   36  A    between atoms: _85  and  _86
REMARK   37  A    between atoms: _85  and  _88
REMARK   38  A    between atoms: _88  and  _89
REMARK   39  A    between atoms: _92  and  _94
REMARK   40  A    between atoms: _94  and  _95
REMARK   41  A    between atoms: _94  and  _97
REMARK   42  A    between atoms: _100  and  _102
REMARK   43  A    between atoms: _102  and  _103
REMARK   44  A    between atoms: _102  and  _105
REMARK   45  A    between atoms: _105  and  _106
REMARK   46  A    between atoms: _106  and  _107
REMARK   47  A    between atoms: _107  and  _108
REMARK   48  A    between atoms: _117  and  _119
REMARK   49  A    between atoms: _119  and  _120
REMARK   50  A    between atoms: _119  and  _122
REMARK   51  A    between atoms: _122  and  _123
REMARK   52  A    between atoms: _126  and  _128
REMARK   53  A    between atoms: _128  and  _129
REMARK   54  A    between atoms: _128  and  _131
REMARK   55  A    between atoms: _131  and  _132
REMARK   56  A    between atoms: _135  and  _137
REMARK   57  A    between atoms: _137  and  _138
REMARK   58  A    between atoms: _140  and  _142
REMARK   59  A    between atoms: _142  and  _143
REMARK   60  A    between atoms: _145  and  _147
REMARK   61  A    between atoms: _147  and  _148
REMARK   62  A    between atoms: _147  and  _150
REMARK   63  A    between atoms: _150  and  _151
REMARK   64  A    between atoms: _154  and  _156
REMARK   65  A    between atoms: _156  and  _157
REMARK   66  A    between atoms: _159  and  _161
REMARK   67  A    between atoms: _161  and  _162
REMARK   68  A    between atoms: _164  and  _166
REMARK   69  A    between atoms: _166  and  _167
REMARK   70  A    between atoms: _166  and  _169
REMARK   71  A    between atoms: _172  and  _174
REMARK   72  A    between atoms: _174  and  _175
REMARK   73  A    between atoms: _174  and  _177
REMARK   74  A    between atoms: _180  and  _182
REMARK   75  A    between atoms: _182  and  _183
REMARK   76  A    between atoms: _182  and  _185
REMARK   77  A    between atoms: _185  and  _186
REMARK   78  A    between atoms: _190  and  _191
REMARK   79  A    between atoms: _196  and  _198
REMARK   80  A    between atoms: _198  and  _199
REMARK   81  A    between atoms: _198  and  _201
REMARK   82  A    between atoms: _201  and  _202
REMARK   83  A    between atoms: _206  and  _207
REMARK   84  A    between atoms: _212  and  _214
REMARK   85  A    between atoms: _214  and  _215
REMARK   86  A    between atoms: _214  and  _217
REMARK   87  A    between atoms: _217  and  _218
REMARK   88  A    between atoms: _221  and  _223
REMARK   89  A    between atoms: _223  and  _224
REMARK   90  A    between atoms: _223  and  _226
REMARK   91  A    between atoms: _226  and  _227
REMARK   92  A    between atoms: _232  and  _234
REMARK   93  A    between atoms: _234  and  _235
REMARK   94  A    between atoms: _234  and  _237
REMARK   95  A    between atoms: _240  and  _242
REMARK   96  A    between atoms: _242  and  _243
REMARK   97  A    between atoms: _242  and  _245
REMARK   98  A    between atoms: _245  and  _246
REMARK   99  A    between atoms: _249  and  _251
REMARK  100  A    between atoms: _251  and  _252
REMARK  101  A    between atoms: _254  and  _256
REMARK  102  A    between atoms: _256  and  _257
REMARK  103  A    between atoms: _256  and  _259
REMARK  104  A    between atoms: _259  and  _260
REMARK  105  A    between atoms: _260  and  _261
REMARK  106  A    between atoms: _261  and  _262
REMARK  107  A    between atoms: _271  and  _273
REMARK  108  A    between atoms: _273  and  _274
REMARK  109  A    between atoms: _273  and  _276
REMARK  110  A    between atoms: _276  and  _277
REMARK  111  A    between atoms: _282  and  _284
REMARK  112  A    between atoms: _284  and  _285
REMARK  113  A    between atoms: _284  and  _287
REMARK  114  A    between atoms: _287  and  _288
REMARK  115  A    between atoms: _288  and  _289
REMARK  116  A    between atoms: _289  and  _290
REMARK  117  A    between atoms: _299  and  _301
REMARK  118  A    between atoms: _301  and  _302
REMARK  119  A    between atoms: _301  and  _304
REMARK  120  A    between atoms: _304  and  _305
REMARK  121  A    between atoms: _308  and  _310
REMARK  122  A    between atoms: _310  and  _311
REMARK  123  A    between atoms: _310  and  _313
REMARK  124  A    between atoms: _313  and  _314
REMARK  125  A    between atoms: _317  and  _319
REMARK  126  A    between atoms: _319  and  _320
REMARK  127  A    between atoms: _319  and  _322
REMARK  128  A    between atoms: _322  and  _323
REMARK  129  A    between atoms: _326  and  _328
REMARK  130  A    between atoms: _328  and  _329
REMARK  131  A    between atoms: _328  and  _331
REMARK  132  A    between atoms: _331  and  _332
REMARK  133  A    between atoms: _335  and  _337
REMARK  134  A    between atoms: _337  and  _338
REMARK  135  A    between atoms: _340  and  _342
REMARK  136  A    between atoms: _342  and  _343
REMARK  137  A    between atoms: _346  and  _348
REMARK  138  A    between atoms: _348  and  _349
REMARK  139  A    between atoms: _348  and  _351
REMARK  140  A    between atoms: _351  and  _352
REMARK  141  A    between atoms: _355  and  _357
REMARK  142  A    between atoms: _357  and  _358
REMARK  143  A    between atoms: _357  and  _360
REMARK  144  A    between atoms: _360  and  _361
REMARK  145  A    between atoms: _364  and  _366
REMARK  146  A    between atoms: _366  and  _367
REMARK  147  A    between atoms: _366  and  _369
REMARK  148  A    between atoms: _369  and  _370
REMARK  149  A    between atoms: _373  and  _375
REMARK  150  A    between atoms: _375  and  _376
REMARK  151  A    between atoms: _375  and  _378
REMARK  152  A    between atoms: _381  and  _383
REMARK  153  A    between atoms: _383  and  _384
REMARK  154  A    between atoms: _383  and  _386
REMARK  155  A    between atoms: _386  and  _387
REMARK  156  A    between atoms: _387  and  _388
REMARK  157  A    between atoms: _388  and  _389
REMARK  158  A    between atoms: _398  and  _400
REMARK  159  A    between atoms: _400  and  _401
REMARK  160  A    between atoms: _400  and  _403
REMARK  161  A    between atoms: _403  and  _404
REMARK  162  A    between atoms: _407  and  _409
REMARK  163  A    between atoms: _409  and  _410
REMARK  164  A    between atoms: _409  and  _412
REMARK  165  A    between atoms: _412  and  _413
REMARK  166  A    between atoms: _416  and  _418
REMARK  167  A    between atoms: _418  and  _419
REMARK  168  A    between atoms: _421  and  _423
REMARK  169  A    between atoms: _423  and  _424
REMARK  170  A    between atoms: _426  and  _428
REMARK  171  A    between atoms: _428  and  _429
REMARK  172  A    between atoms: _428  and  _431
REMARK  173  A    between atoms: _431  and  _432
REMARK  174  A    between atoms: _435  and  _437
REMARK  175  A    between atoms: _437  and  _438
REMARK  176  A    between atoms: _440  and  _442
REMARK  177  A    between atoms: _442  and  _443
REMARK  178  A    between atoms: _445  and  _447
REMARK  179  A    between atoms: _447  and  _448
REMARK  180  A    between atoms: _447  and  _450
REMARK  181  A    between atoms: _453  and  _455
REMARK  182  A    between atoms: _455  and  _456
REMARK  183  A    between atoms: _455  and  _458
REMARK  184  A    between atoms: _458  and  _459
REMARK  185  A    between atoms: _462  and  _464
REMARK  186  A    between atoms: _464  and  _465
REMARK  187  A    between atoms: _464  and  _467
REMARK  188  A    between atoms: _467  and  _468
REMARK  189  A    between atoms: _472  and  _473
REMARK  190  A    between atoms: _478  and  _480
REMARK  191  A    between atoms: _480  and  _481
REMARK  192  A    between atoms: _480  and  _483
REMARK  193  A    between atoms: _483  and  _484
REMARK  194  A    between atoms: _487  and  _489
REMARK  195  A    between atoms: _489  and  _490
REMARK  196  A    between atoms: _489  and  _492
REMARK  197  A    between atoms: _492  and  _493
REMARK  198  A    between atoms: _498  and  _500
REMARK  199  A    between atoms: _500  and  _501
REMARK  200  A    between atoms: _500  and  _503
REMARK  201  A    between atoms: _506  and  _508
REMARK  202  A    between atoms: _508  and  _509
REMARK  203  A    between atoms: _508  and  _511
REMARK  204  A    between atoms: _511  and  _512
REMARK  205  A    between atoms: _515  and  _517
REMARK  206  A    between atoms: _517  and  _518
REMARK  207  A    between atoms: _520  and  _522
REMARK  208  A    between atoms: _522  and  _523
REMARK  209  A    between atoms: _522  and  _525
REMARK  210  A    between atoms: _525  and  _526
REMARK  211  A    between atoms: _526  and  _527
REMARK  212  A    between atoms: _527  and  _528
REMARK  213  A    between atoms: _537  and  _539
REMARK  214  A    between atoms: _539  and  _540
REMARK  215  A    between atoms: _539  and  _542
REMARK  216  A    between atoms: _542  and  _543
REMARK                            x       y       z     vdW  Elec       q    Type
REMARK                         _______ _______ _______ _____ _____    ______ ____
ROOT
ATOM      1  CA  VAL A   1      -2.878   8.851  34.009  0.00  0.00    +0.133 C 
ENDROOT
BRANCH   1   2
ATOM      2  CB  VAL A   1      -2.292  10.172  33.421  0.00  0.00    +0.023 C 
ATOM      3  CG2 VAL A   1      -3.215  11.358  33.667  0.00  0.00    +0.002 C 
ATOM      4  CG1 VAL A   1      -2.008  10.008  31.929  0.00  0.00    +0.002 C 
ENDBRANCH   1   2
BRANCH   1   5
ATOM      5  N   VAL A   1      -4.127   8.452  33.371  0.00  0.00    -0.239 NA
ATOM      6  H   VAL A   1      -4.991   8.998  33.563  0.00  0.00    +0.142 HD
ENDBRANCH   1   5
BRANCH   1   7
ATOM      7  C   VAL A   1      -3.029   8.964  35.531  0.00  0.00    +0.224 C 
ATOM      8  O   VAL A   1      -4.106   9.293  36.048  0.00  0.00    -0.287 OA
ENDBRANCH   1   7
TORSDOF 3
REMARK  Name = ../refined-set-2016/3ggu/3ggu_pocket.pdb
REMARK  216 active torsions:
REMARK  status: ('A' for Active; 'I' for Inactive)
REMARK    1  A    between atoms: _1  and  _3
REMARK    2  A    between atoms: _3  and  _4
REMARK    3  A    between atoms: _3  and  _6
REMARK    4  A    between atoms: _6  and  _7
REMARK    5  A    between atoms: _7  and  _8
REMARK    6  A    between atoms: _8  and  _9
REMARK    7  A    between atoms: _18  and  _20
REMARK    8  A    between atoms: _20  and  _21
REMARK    9  A    between atoms: _20  and  _23
REMARK   10  A    between atoms: _23  and  _24
REMARK   11  A    between atoms: _27  and  _29
REMARK   12  A    between atoms: _29  and  _30
REMARK   13  A    between atoms: _29  and  _32
REMARK   14  A    between atoms: _32  and  _33
REMARK   15  A    between atoms: _36  and  _38
REMARK   16  A    between atoms: _38  and  _39
REMARK   17  A    between atoms: _38  and  _41
REMARK   18  A    between atoms: _41  and  _42
REMARK   19  A    between atoms: _45  and  _47
REMARK   20  A    between atoms: _47  and  _48
REMARK   21  A    between atoms: _47  and  _50
REMARK   22  A    between atoms: _50  and  _51
REMARK   23  A    between atoms: _54  and  _56
REMARK   24  A    between atoms: _56  and  _57
REMARK   25  A    between atoms: _59  and  _61
REMARK   26  A    between atoms: _61  and  _62
REMARK   27  A    between atoms: _65  and  _67
REMARK   28  A    between atoms: _67  and  _68
REMARK   29  A    between atoms: _67  and  _70
REMARK   30  A    between atoms: _70  and  _71
REMARK   31  A    between atoms: _74  and  _76
REMARK   32  A    between atoms: _76  and  _77
REMARK   33  A    between atoms: _76  and  _79
REMARK   34  A    between atoms: _79  and  _80
REMARK   35  A    between atoms: _83  and  _85
REMARK   36  A    between atoms: _85  and  _86
REMARK   37  A    between atoms: _85  and  _88
REMARK   38  A    between atoms: _88  and  _89
REMARK   39  A    between atoms: _92  and  _94
REMARK   40  A    between atoms: _94  and  _95
REMARK   41  A    between atoms: _94  and  _97
REMARK   42  A    between atoms: _100  and  _102
REMARK   43  A    between atoms: _102  and  _103
REMARK   44  A    between atoms: _102  and  _105
REMARK   45  A    between atoms: _105  and  _106
REMARK   46  A    between atoms: _106  and  _107
REMARK   47  A    between atoms: _107  and  _108
REMARK   48  A    between atoms: _117  and  _119
REMARK   49  A    between atoms: _119  and  _120
REMARK   50  A    between atoms: _119  and  _122
REMARK   51  A    between atoms: _122  and  _123
REMARK   52  A    between atoms: _126  and  _128
REMARK   53  A    between atoms: _128  and  _129
REMARK   54  A    between atoms: _128  and  _131
REMARK   55  A    between atoms: _131  and  _132
REMARK   56  A    between atoms: _135  and  _137
REMARK   57  A    between atoms: _137  and  _138
REMARK   58  A    between atoms: _140  and  _142
REMARK   59  A    between atoms: _142  and  _143
REMARK   60  A    between atoms: _145  and  _147
REMARK   61  A    between atoms: _147  and  _148
REMARK   62  A    between atoms: _147  and  _150
REMARK   63  A    between atoms: _150  and  _151
REMARK   64  A    between atoms: _154  and  _156
REMARK   65  A    between atoms: _156  and  _157
REMARK   66  A    between atoms: _159  and  _161
REMARK   67  A    between atoms: _161  and  _162
REMARK   68  A    between atoms: _164  and  _166
REMARK   69  A    between atoms: _166  and  _167
REMARK   70  A    between atoms: _166  and  _169
REMARK   71  A    between atoms: _172  and  _174
REMARK   72  A    between atoms: _174  and  _175
REMARK   73  A    between atoms: _174  and  _177
REMARK   74  A    between atoms: _180  and  _182
REMARK   75  A    between atoms: _182  and  _183
REMARK   76  A    between atoms: _182  and  _185
REMARK   77  A    between atoms: _185  and  _186
REMARK   78  A    between atoms: _190  and  _191
REMARK   79  A    between atoms: _196  and  _198
REMARK   80  A    between atoms: _198  and  _199
REMARK   81  A    between atoms: _198  and  _201
REMARK   82  A    between atoms: _201  and  _202
REMARK   83  A    between atoms: _206  and  _207
REMARK   84  A    between atoms: _212  and  _214
REMARK   85  A    between atoms: _214  and  _215
REMARK   86  A    between atoms: _214  and  _217
REMARK   87  A    between atoms: _217  and  _218
REMARK   88  A    between atoms: _221  and  _223
REMARK   89  A    between atoms: _223  and  _224
REMARK   90  A    between atoms: _223  and  _226
REMARK   91  A    between atoms: _226  and  _227
REMARK   92  A    between atoms: _232  and  _234
REMARK   93  A    between atoms: _234  and  _235
REMARK   94  A    between atoms: _234  and  _237
REMARK   95  A    between atoms: _240  and  _242
REMARK   96  A    between atoms: _242  and  _243
REMARK   97  A    between atoms: _242  and  _245
REMARK   98  A    between atoms: _245  and  _246
REMARK   99  A    between atoms: _249  and  _251
REMARK  100  A    between atoms: _251  and  _252
REMARK  101  A    between atoms: _254  and  _256
REMARK  102  A    between atoms: _256  and  _257
REMARK  103  A    between atoms: _256  and  _259
REMARK  104  A    between atoms: _259  and  _260
REMARK  105  A    between atoms: _260  and  _261
REMARK  106  A    between atoms: _261  and  _262
REMARK  107  A    between atoms: _271  and  _273
REMARK  108  A    between atoms: _273  and  _274
REMARK  109  A    between atoms: _273  and  _276
REMARK  110  A    between atoms: _276  and  _277
REMARK  111  A    between atoms: _282  and  _284
REMARK  112  A    between atoms: _284  and  _285
REMARK  113  A    between atoms: _284  and  _287
REMARK  114  A    between atoms: _287  and  _288
REMARK  115  A    between atoms: _288  and  _289
REMARK  116  A    between atoms: _289  and  _290
REMARK  117  A    between atoms: _299  and  _301
REMARK  118  A    between atoms: _301  and  _302
REMARK  119  A    between atoms: _301  and  _304
REMARK  120  A    between atoms: _304  and  _305
REMARK  121  A    between atoms: _308  and  _310
REMARK  122  A    between atoms: _310  and  _311
REMARK  123  A    between atoms: _310  and  _313
REMARK  124  A    between atoms: _313  and  _314
REMARK  125  A    between atoms: _317  and  _319
REMARK  126  A    between atoms: _319  and  _320
REMARK  127  A    between atoms: _319  and  _322
REMARK  128  A    between atoms: _322  and  _323
REMARK  129  A    between atoms: _326  and  _328
REMARK  130  A    between atoms: _328  and  _329
REMARK  131  A    between atoms: _328  and  _331
REMARK  132  A    between atoms: _331  and  _332
REMARK  133  A    between atoms: _335  and  _337
REMARK  134  A    between atoms: _337  and  _338
REMARK  135  A    between atoms: _340  and  _342
REMARK  136  A    between atoms: _342  and  _343
REMARK  137  A    between atoms: _346  and  _348
REMARK  138  A    between atoms: _348  and  _349
REMARK  139  A    between atoms: _348  and  _351
REMARK  140  A    between atoms: _351  and  _352
REMARK  141  A    between atoms: _355  and  _357
REMARK  142  A    between atoms: _357  and  _358
REMARK  143  A    between atoms: _357  and  _360
REMARK  144  A    between atoms: _360  and  _361
REMARK  145  A    between atoms: _364  and  _366
REMARK  146  A    between atoms: _366  and  _367
REMARK  147  A    between atoms: _366  and  _369
REMARK  148  A    between atoms: _369  and  _370
REMARK  149  A    between atoms: _373  and  _375
REMARK  150  A    between atoms: _375  and  _376
REMARK  151  A    between atoms: _375  and  _378
REMARK  152  A    between atoms: _381  and  _383
REMARK  153  A    between atoms: _383  and  _384
REMARK  154  A    between atoms: _383  and  _386
REMARK  155  A    between atoms: _386  and  _387
REMARK  156  A    between atoms: _387  and  _388
REMARK  157  A    between atoms: _388  and  _389
REMARK  158  A    between atoms: _398  and  _400
REMARK  159  A    between atoms: _400  and  _401
REMARK  160  A    between atoms: _400  and  _403
REMARK  161  A    between atoms: _403  and  _404
REMARK  162  A    between atoms: _407  and  _409
REMARK  163  A    between atoms: _409  and  _410
REMARK  164  A    between atoms: _409  and  _412
REMARK  165  A    between atoms: _412  and  _413
REMARK  166  A    between atoms: _416  and  _418
REMARK  167  A    between atoms: _418  and  _419
REMARK  168  A    between atoms: _421  and  _423
REMARK  169  A    between atoms: _423  and  _424
REMARK  170  A    between atoms: _426  and  _428
REMARK  171  A    between atoms: _428  and  _429
REMARK  172  A    between atoms: _428  and  _431
REMARK  173  A    between atoms: _431  and  _432
REMARK  174  A    between atoms: _435  and  _437
REMARK  175  A    between atoms: _437  and  _438
REMARK  176  A    between atoms: _440  and  _442
REMARK  177  A    between atoms: _442  and  _443
REMARK  178  A    between atoms: _445  and  _447
REMARK  179  A    between atoms: _447  and  _448
REMARK  180  A    between atoms: _447  and  _450
REMARK  181  A    between atoms: _453  and  _455
REMARK  182  A    between atoms: _455  and  _456
REMARK  183  A    between atoms: _455  and  _458
REMARK  184  A    between atoms: _458  and  _459
REMARK  185  A    between atoms: _462  and  _464
REMARK  186  A    between atoms: _464  and  _465
REMARK  187  A    between atoms: _464  and  _467
REMARK  188  A    between atoms: _467  and  _468
REMARK  189  A    between atoms: _472  and  _473
REMARK  190  A    between atoms: _478  and  _480
REMARK  191  A    between atoms: _480  and  _481
REMARK  192  A    between atoms: _480  and  _483
REMARK  193  A    between atoms: _483  and  _484
REMARK  194  A    between atoms: _487  and  _489
REMARK  195  A    between atoms: _489  and  _490
REMARK  196  A    between atoms: _489  and  _492
REMARK  197  A    between atoms: _492  and  _493
REMARK  198  A    between atoms: _498  and  _500
REMARK  199  A    between atoms: _500  and  _501
REMARK  200  A    between atoms: _500  and  _503
REMARK  201  A    between atoms: _506  and  _508
REMARK  202  A    between atoms: _508  and  _509
REMARK  203  A    between atoms: _508  and  _511
REMARK  204  A    between atoms: _511  and  _512
REMARK  205  A    between atoms: _515  and  _517
REMARK  206  A    between atoms: _517  and  _518
REMARK  207  A    between atoms: _520  and  _522
REMARK  208  A    between atoms: _522  and  _523
REMARK  209  A    between atoms: _522  and  _525
REMARK  210  A    between atoms: _525  and  _526
REMARK  211  A    between atoms: _526  and  _527
REMARK  212  A    between atoms: _527  and  _528
REMARK  213  A    between atoms: _537  and  _539
REMARK  214  A    between atoms: _539  and  _540
REMARK  215  A    between atoms: _539  and  _542
REMARK  216  A    between atoms: _542  and  _543
REMARK                            x       y       z     vdW  Elec       q    Type
REMARK                         _______ _______ _______ _____ _____    ______ ____
ROOT
ATOM      1  CA  LEU A   1      -3.979  17.690  39.758  0.00  0.00    +0.133 C 
ENDROOT
BRANCH   1   2
ATOM      2  N   LEU A   1      -4.570  19.000  39.957  0.00  0.00    -0.239 NA
ATOM      3  H   LEU A   1      -5.140  19.418  39.194  0.00  0.00    +0.142 HD
ENDBRANCH   1   2
BRANCH   1   4
ATOM      4  C   LEU A   1      -2.634  17.861  39.054  0.00  0.00    +0.224 C 
ATOM      5  O   LEU A   1      -2.513  18.646  38.109  0.00  0.00    -0.287 OA
ENDBRANCH   1   4
BRANCH   1   6
ATOM      6  CB  LEU A   1      -4.926  16.837  38.905  0.00  0.00    +0.025 C 
BRANCH   6   7
ATOM      7  CG  LEU A   1      -6.083  16.040  39.513  0.00  0.00    +0.002 C 
ATOM      8  CD2 LEU A   1      -6.582  16.401  40.958  0.00  0.00    +0.000 C 
ATOM      9  CD1 LEU A   1      -7.242  15.944  38.502  0.00  0.00    +0.000 C 
ENDBRANCH   6   7
ENDBRANCH   1   6
TORSDOF 4
REMARK  Name = ../refined-set-2016/3ggu/3ggu_pocket.pdb
REMARK  216 active torsions:
REMARK  status: ('A' for Active; 'I' for Inactive)
REMARK    1  A    between atoms: _1  and  _3
REMARK    2  A    between atoms: _3  and  _4
REMARK    3  A    between atoms: _3  and  _6
REMARK    4  A    between atoms: _6  and  _7
REMARK    5  A    between atoms: _7  and  _8
REMARK    6  A    between atoms: _8  and  _9
REMARK    7  A    between atoms: _18  and  _20
REMARK    8  A    between atoms: _20  and  _21
REMARK    9  A    between atoms: _20  and  _23
REMARK   10  A    between atoms: _23  and  _24
REMARK   11  A    between atoms: _27  and  _29
REMARK   12  A    between atoms: _29  and  _30
REMARK   13  A    between atoms: _29  and  _32
REMARK   14  A    between atoms: _32  and  _33
REMARK   15  A    between atoms: _36  and  _38
REMARK   16  A    between atoms: _38  and  _39
REMARK   17  A    between atoms: _38  and  _41
REMARK   18  A    between atoms: _41  and  _42
REMARK   19  A    between atoms: _45  and  _47
REMARK   20  A    between atoms: _47  and  _48
REMARK   21  A    between atoms: _47  and  _50
REMARK   22  A    between atoms: _50  and  _51
REMARK   23  A    between atoms: _54  and  _56
REMARK   24  A    between atoms: _56  and  _57
REMARK   25  A    between atoms: _59  and  _61
REMARK   26  A    between atoms: _61  and  _62
REMARK   27  A    between atoms: _65  and  _67
REMARK   28  A    between atoms: _67  and  _68
REMARK   29  A    between atoms: _67  and  _70
REMARK   30  A    between atoms: _70  and  _71
REMARK   31  A    between atoms: _74  and  _76
REMARK   32  A    between atoms: _76  and  _77
REMARK   33  A    between atoms: _76  and  _79
REMARK   34  A    between atoms: _79  and  _80
REMARK   35  A    between atoms: _83  and  _85
REMARK   36  A    between atoms: _85  and  _86
REMARK   37  A    between atoms: _85  and  _88
REMARK   38  A    between atoms: _88  and  _89
REMARK   39  A    between atoms: _92  and  _94
REMARK   40  A    between atoms: _94  and  _95
REMARK   41  A    between atoms: _94  and  _97
REMARK   42  A    between atoms: _100  and  _102
REMARK   43  A    between atoms: _102  and  _103
REMARK   44  A    between atoms: _102  and  _105
REMARK   45  A    between atoms: _105  and  _106
REMARK   46  A    between atoms: _106  and  _107
REMARK   47  A    between atoms: _107  and  _108
REMARK   48  A    between atoms: _117  and  _119
REMARK   49  A    between atoms: _119  and  _120
REMARK   50  A    between atoms: _119  and  _122
REMARK   51  A    between atoms: _122  and  _123
REMARK   52  A    between atoms: _126  and  _128
REMARK   53  A    between atoms: _128  and  _129
REMARK   54  A    between atoms: _128  and  _131
REMARK   55  A    between atoms: _131  and  _132
REMARK   56  A    between atoms: _135  and  _137
REMARK   57  A    between atoms: _137  and  _138
REMARK   58  A    between atoms: _140  and  _142
REMARK   59  A    between atoms: _142  and  _143
REMARK   60  A    between atoms: _145  and  _147
REMARK   61  A    between atoms: _147  and  _148
REMARK   62  A    between atoms: _147  and  _150
REMARK   63  A    between atoms: _150  and  _151
REMARK   64  A    between atoms: _154  and  _156
REMARK   65  A    between atoms: _156  and  _157
REMARK   66  A    between atoms: _159  and  _161
REMARK   67  A    between atoms: _161  and  _162
REMARK   68  A    between atoms: _164  and  _166
REMARK   69  A    between atoms: _166  and  _167
REMARK   70  A    between atoms: _166  and  _169
REMARK   71  A    between atoms: _172  and  _174
REMARK   72  A    between atoms: _174  and  _175
REMARK   73  A    between atoms: _174  and  _177
REMARK   74  A    between atoms: _180  and  _182
REMARK   75  A    between atoms: _182  and  _183
REMARK   76  A    between atoms: _182  and  _185
REMARK   77  A    between atoms: _185  and  _186
REMARK   78  A    between atoms: _190  and  _191
REMARK   79  A    between atoms: _196  and  _198
REMARK   80  A    between atoms: _198  and  _199
REMARK   81  A    between atoms: _198  and  _201
REMARK   82  A    between atoms: _201  and  _202
REMARK   83  A    between atoms: _206  and  _207
REMARK   84  A    between atoms: _212  and  _214
REMARK   85  A    between atoms: _214  and  _215
REMARK   86  A    between atoms: _214  and  _217
REMARK   87  A    between atoms: _217  and  _218
REMARK   88  A    between atoms: _221  and  _223
REMARK   89  A    between atoms: _223  and  _224
REMARK   90  A    between atoms: _223  and  _226
REMARK   91  A    between atoms: _226  and  _227
REMARK   92  A    between atoms: _232  and  _234
REMARK   93  A    between atoms: _234  and  _235
REMARK   94  A    between atoms: _234  and  _237
REMARK   95  A    between atoms: _240  and  _242
REMARK   96  A    between atoms: _242  and  _243
REMARK   97  A    between atoms: _242  and  _245
REMARK   98  A    between atoms: _245  and  _246
REMARK   99  A    between atoms: _249  and  _251
REMARK  100  A    between atoms: _251  and  _252
REMARK  101  A    between atoms: _254  and  _256
REMARK  102  A    between atoms: _256  and  _257
REMARK  103  A    between atoms: _256  and  _259
REMARK  104  A    between atoms: _259  and  _260
REMARK  105  A    between atoms: _260  and  _261
REMARK  106  A    between atoms: _261  and  _262
REMARK  107  A    between atoms: _271  and  _273
REMARK  108  A    between atoms: _273  and  _274
REMARK  109  A    between atoms: _273  and  _276
REMARK  110  A    between atoms: _276  and  _277
REMARK  111  A    between atoms: _282  and  _284
REMARK  112  A    between atoms: _284  and  _285
REMARK  113  A    between atoms: _284  and  _287
REMARK  114  A    between atoms: _287  and  _288
REMARK  115  A    between atoms: _288  and  _289
REMARK  116  A    between atoms: _289  and  _290
REMARK  117  A    between atoms: _299  and  _301
REMARK  118  A    between atoms: _301  and  _302
REMARK  119  A    between atoms: _301  and  _304
REMARK  120  A    between atoms: _304  and  _305
REMARK  121  A    between atoms: _308  and  _310
REMARK  122  A    between atoms: _310  and  _311
REMARK  123  A    between atoms: _310  and  _313
REMARK  124  A    between atoms: _313  and  _314
REMARK  125  A    between atoms: _317  and  _319
REMARK  126  A    between atoms: _319  and  _320
REMARK  127  A    between atoms: _319  and  _322
REMARK  128  A    between atoms: _322  and  _323
REMARK  129  A    between atoms: _326  and  _328
REMARK  130  A    between atoms: _328  and  _329
REMARK  131  A    between atoms: _328  and  _331
REMARK  132  A    between atoms: _331  and  _332
REMARK  133  A    between atoms: _335  and  _337
REMARK  134  A    between atoms: _337  and  _338
REMARK  135  A    between atoms: _340  and  _342
REMARK  136  A    between atoms: _342  and  _343
REMARK  137  A    between atoms: _346  and  _348
REMARK  138  A    between atoms: _348  and  _349
REMARK  139  A    between atoms: _348  and  _351
REMARK  140  A    between atoms: _351  and  _352
REMARK  141  A    between atoms: _355  and  _357
REMARK  142  A    between atoms: _357  and  _358
REMARK  143  A    between atoms: _357  and  _360
REMARK  144  A    between atoms: _360  and  _361
REMARK  145  A    between atoms: _364  and  _366
REMARK  146  A    between atoms: _366  and  _367
REMARK  147  A    between atoms: _366  and  _369
REMARK  148  A    between atoms: _369  and  _370
REMARK  149  A    between atoms: _373  and  _375
REMARK  150  A    between atoms: _375  and  _376
REMARK  151  A    between atoms: _375  and  _378
REMARK  152  A    between atoms: _381  and  _383
REMARK  153  A    between atoms: _383  and  _384
REMARK  154  A    between atoms: _383  and  _386
REMARK  155  A    between atoms: _386  and  _387
REMARK  156  A    between atoms: _387  and  _388
REMARK  157  A    between atoms: _388  and  _389
REMARK  158  A    between atoms: _398  and  _400
REMARK  159  A    between atoms: _400  and  _401
REMARK  160  A    between atoms: _400  and  _403
REMARK  161  A    between atoms: _403  and  _404
REMARK  162  A    between atoms: _407  and  _409
REMARK  163  A    between atoms: _409  and  _410
REMARK  164  A    between atoms: _409  and  _412
REMARK  165  A    between atoms: _412  and  _413
REMARK  166  A    between atoms: _416  and  _418
REMARK  167  A    between atoms: _418  and  _419
REMARK  168  A    between atoms: _421  and  _423
REMARK  169  A    between atoms: _423  and  _424
REMARK  170  A    between atoms: _426  and  _428
REMARK  171  A    between atoms: _428  and  _429
REMARK  172  A    between atoms: _428  and  _431
REMARK  173  A    between atoms: _431  and  _432
REMARK  174  A    between atoms: _435  and  _437
REMARK  175  A    between atoms: _437  and  _438
REMARK  176  A    between atoms: _440  and  _442
REMARK  177  A    between atoms: _442  and  _443
REMARK  178  A    between atoms: _445  and  _447
REMARK  179  A    between atoms: _447  and  _448
REMARK  180  A    between atoms: _447  and  _450
REMARK  181  A    between atoms: _453  and  _455
REMARK  182  A    between atoms: _455  and  _456
REMARK  183  A    between atoms: _455  and  _458
REMARK  184  A    between atoms: _458  and  _459
REMARK  185  A    between atoms: _462  and  _464
REMARK  186  A    between atoms: _464  and  _465
REMARK  187  A    between atoms: _464  and  _467
REMARK  188  A    between atoms: _467  and  _468
REMARK  189  A    between atoms: _472  and  _473
REMARK  190  A    between atoms: _478  and  _480
REMARK  191  A    between atoms: _480  and  _481
REMARK  192  A    between atoms: _480  and  _483
REMARK  193  A    between atoms: _483  and  _484
REMARK  194  A    between atoms: _487  and  _489
REMARK  195  A    between atoms: _489  and  _490
REMARK  196  A    between atoms: _489  and  _492
REMARK  197  A    between atoms: _492  and  _493
REMARK  198  A    between atoms: _498  and  _500
REMARK  199  A    between atoms: _500  and  _501
REMARK  200  A    between atoms: _500  and  _503
REMARK  201  A    between atoms: _506  and  _508
REMARK  202  A    between atoms: _508  and  _509
REMARK  203  A    between atoms: _508  and  _511
REMARK  204  A    between atoms: _511  and  _512
REMARK  205  A    between atoms: _515  and  _517
REMARK  206  A    between atoms: _517  and  _518
REMARK  207  A    between atoms: _520  and  _522
REMARK  208  A    between atoms: _522  and  _523
REMARK  209  A    between atoms: _522  and  _525
REMARK  210  A    between atoms: _525  and  _526
REMARK  211  A    between atoms: _526  and  _527
REMARK  212  A    between atoms: _527  and  _528
REMARK  213  A    between atoms: _537  and  _539
REMARK  214  A    between atoms: _539  and  _540
REMARK  215  A    between atoms: _539  and  _542
REMARK  216  A    between atoms: _542  and  _543
REMARK                            x       y       z     vdW  Elec       q    Type
REMARK                         _______ _______ _______ _____ _____    ______ ____
ROOT
ATOM      1  C   VAL A   5      -6.301  23.216  32.678  0.00  0.00    +0.241 C 
ATOM      2  O   VAL A   5      -6.053  22.733  33.798  0.00  0.00    -0.273 OA
ATOM      3  N   ILE A   6      -7.045  24.299  32.469  0.00  0.00    -0.297 N 
ATOM      4  H   ILE A   6      -7.078  24.706  31.513  0.00  0.00    +0.150 HD
ENDROOT
BRANCH   3   5
ATOM      5  CA  ILE A   6      -7.815  24.936  33.528  0.00  0.00    +0.149 C 
BRANCH   5   6
ATOM      6  C   ILE A   6      -9.227  24.378  33.380  0.00  0.00    +0.241 C 
ATOM      7  N   GLY A   7      -9.705  23.696  34.419  0.00  0.00    -0.295 N 
ATOM      8  H   GLY A   7      -9.156  23.670  35.302  0.00  0.00    +0.150 HD
ATOM      9  O   ILE A   6      -9.862  24.579  32.338  0.00  0.00    -0.273 OA
BRANCH   7  10
ATOM     10  CA  GLY A   7     -10.983  22.981  34.354  0.00  0.00    +0.176 C 
BRANCH  10  11
ATOM     11  C   GLY A   7     -12.180  23.784  34.836  0.00  0.00    +0.243 C 
ATOM     12  O   GLY A   7     -12.058  24.953  35.225  0.00  0.00    -0.273 OA
ATOM     13  N   ARG A   8     -13.345  23.138  34.841  0.00  0.00    -0.297 N 
ATOM     14  H   ARG A   8     -13.383  22.130  34.587  0.00  0.00    +0.150 HD
BRANCH  13  15
ATOM     15  CA  ARG A   8     -14.562  23.843  35.202  0.00  0.00    +0.149 C 
BRANCH  15  16
ATOM     16  C   ARG A   8     -14.515  24.272  36.652  0.00  0.00    +0.241 C 
ATOM     17  N   ASN A   9     -13.734  23.561  37.473  0.00  0.00    -0.298 N 
ATOM     18  H   ASN A   9     -13.184  22.769  37.084  0.00  0.00    +0.150 HD
ATOM     19  O   ARG A   8     -15.175  25.233  37.006  0.00  0.00    -0.273 OA
BRANCH  17  20
ATOM     20  CA  ASN A   9     -13.629  23.865  38.908  0.00  0.00    +0.146 C 
BRANCH  20  21
ATOM     21  C   ASN A   9     -13.129  25.289  39.126  0.00  0.00    +0.227 C 
ATOM     22  O   ASN A   9     -13.579  25.971  40.016  0.00  0.00    -0.286 OA
ENDBRANCH  20  21
BRANCH  20  23
ATOM     23  CB  ASN A   9     -12.796  22.811  39.674  0.00  0.00    +0.112 C 
BRANCH  23  24
ATOM     24  CG  ASN A   9     -11.311  22.794  39.287  0.00  0.00    +0.222 C 
ATOM     25  ND2 ASN A   9     -10.438  22.782  40.305  0.00  0.00    -0.329 N 
ATOM     26 HD21 ASN A   9     -10.783  22.805  41.286  0.00  0.00    +0.145 HD
ATOM     27 HD22 ASN A   9      -9.416  22.750  40.113  0.00  0.00    +0.145 HD
ATOM     28  OD1 ASN A   9     -10.952  22.768  38.102  0.00  0.00    -0.275 OA
ENDBRANCH  23  24
ENDBRANCH  20  23
ENDBRANCH  17  20
ENDBRANCH  15  16
BRANCH  15  29
ATOM     29  CB  ARG A   8     -15.801  23.000  34.944  0.00  0.00    +0.033 C 
BRANCH  29  30
ATOM     30  CG  ARG A   8     -16.055  22.693  33.465  0.00  0.00    +0.045 C 
BRANCH  30  31
ATOM     31  CD  ARG A   8     -17.432  21.984  33.240  0.00  0.00    +0.174 C 
BRANCH  31  32
ATOM     32  NE  ARG A   8     -17.423  20.626  33.809  0.00  0.00    -0.265 N 
ATOM     33  CZ  ARG A   8     -17.931  20.284  34.991  0.00  0.00    +0.342 C 
ATOM     34  NH2 ARG A   8     -18.561  21.173  35.766  0.00  0.00    -0.292 N 
ATOM     35 HH21 ARG A   8     -18.949  20.879  36.685  0.00  0.00    +0.255 HD
ATOM     36 HH22 ARG A   8     -18.663  22.158  35.450  0.00  0.00    +0.255 HD
ATOM     37  NH1 ARG A   8     -17.813  19.037  35.410  0.00  0.00    -0.292 N 
ATOM     38 HH11 ARG A   8     -18.206  18.759  36.332  0.00  0.00    +0.255 HD
ATOM     39 HH12 ARG A   8     -17.327  18.333  34.818  0.00  0.00    +0.255 HD
ATOM     40  HE  ARG A   8     -16.984  19.873  33.241  0.00  0.00    +0.259 HD
ENDBRANCH  31  32
ENDBRANCH  30  31
ENDBRANCH  29  30
ENDBRANCH  15  29
ENDBRANCH  13  15
ENDBRANCH  10  11
ENDBRANCH   7  10
ENDBRANCH   5   6
BRANCH   5  41
ATOM     41  CB  ILE A   6      -7.869  26.461  33.324  0.00  0.00    +0.027 C 
ATOM     42  CG2 ILE A   6      -8.806  27.114  34.367  0.00  0.00    +0.002 C 
BRANCH  41  43
ATOM     43  CG1 ILE A   6      -6.451  27.063  33.332  0.00  0.00    +0.002 C 
ATOM     44  CD1 ILE A   6      -5.599  26.643  34.536  0.00  0.00    +0.000 C 
ENDBRANCH  41  43
ENDBRANCH   5  41
ENDBRANCH   3   5
BRANCH   1  45
ATOM     45  CA  VAL A   5      -5.668  22.631  31.440  0.00  0.00    +0.149 C 
BRANCH  45  47
ATOM     46  C   ASN A   4      -3.311  22.614  30.864  0.00  0.00    +0.241 C 
ATOM     47  N   VAL A   5      -4.267  22.246  31.731  0.00  0.00    -0.297 N 
ATOM     48  H   VAL A   5      -4.030  21.704  32.586  0.00  0.00    +0.150 HD
ATOM     49  O   ASN A   4      -3.544  23.346  29.877  0.00  0.00    -0.273 OA
BRANCH  46  50
ATOM     50  CA  ASN A   4      -1.905  22.126  31.113  0.00  0.00    +0.158 C 
BRANCH  50  52
ATOM     51  C   THR A   3      -1.714  20.633  29.200  0.00  0.00    +0.243 C 
ATOM     52  N   ASN A   4      -1.301  21.748  29.816  0.00  0.00    -0.297 N 
ATOM     53  H   ASN A   4      -0.563  22.342  29.387  0.00  0.00    +0.150 HD
ATOM     54  O   THR A   3      -2.564  19.851  29.679  0.00  0.00    -0.273 OA
BRANCH  51  55
ATOM     55  CA  THR A   3      -1.138  20.352  27.812  0.00  0.00    +0.176 C 
BRANCH  55  57
ATOM     56  C   PRO A   2       0.339  18.524  27.094  0.00  0.00    +0.241 C 
ATOM     57  N   THR A   3      -0.733  18.954  27.768  0.00  0.00    -0.295 N 
ATOM     58  H   THR A   3      -1.305  18.256  28.286  0.00  0.00    +0.150 HD
ATOM     59  O   PRO A   2       1.120  19.267  26.508  0.00  0.00    -0.273 OA
BRANCH  56  66
ATOM     60  C   THR A   1       0.261  16.489  29.386  0.00  0.00    +0.244 C 
ATOM     61  O   THR A   1       1.211  17.206  29.691  0.00  0.00    -0.273 OA
ATOM     62  N   PRO A   2      -0.128  16.314  28.118  0.00  0.00    -0.272 N 
ATOM     63  CD  PRO A   2      -1.202  15.462  27.589  0.00  0.00    +0.094 C 
ATOM     64  CG  PRO A   2      -0.798  15.284  26.189  0.00  0.00    +0.024 C 
ATOM     65  CB  PRO A   2      -0.100  16.484  25.782  0.00  0.00    +0.031 C 
ATOM     66  CA  PRO A   2       0.560  17.028  27.051  0.00  0.00    +0.152 C 
BRANCH  60  67
ATOM     67  CA  THR A   1      -0.496  15.722  30.467  0.00  0.00    +0.172 C 
BRANCH  67  68
ATOM     68  N   THR A   1       0.509  15.274  31.419  0.00  0.00    -0.236 NA
ATOM     69  H   THR A   1       1.365  15.848  31.556  0.00  0.00    +0.142 HD
ENDBRANCH  67  68
BRANCH  67  70
ATOM     70  CB  THR A   1      -1.616  16.607  31.129  0.00  0.00    +0.135 C 
ATOM     71  CG2 THR A   1      -1.037  17.794  31.917  0.00  0.00    +0.034 C 
BRANCH  70  72
ATOM     72  OG1 THR A   1      -2.481  17.120  30.114  0.00  0.00    -0.383 OA
ATOM     73  HG1 THR A   1      -1.955  17.671  29.482  0.00  0.00    +0.210 HD
ENDBRANCH  70  72
ENDBRANCH  67  70
ENDBRANCH  60  67
ENDBRANCH  56  66
ENDBRANCH  55  57
BRANCH  55  74
ATOM     74  CB  THR A   3      -2.277  20.602  26.794  0.00  0.00    +0.137 C 
ATOM     75  CG2 THR A   3      -2.764  22.013  26.879  0.00  0.00    +0.034 C 
BRANCH  74  76
ATOM     76  OG1 THR A   3      -1.798  20.345  25.454  0.00  0.00    -0.382 OA
ATOM     77  HG1 THR A   3      -2.530  20.506  24.807  0.00  0.00    +0.210 HD
ENDBRANCH  74  76
ENDBRANCH  55  74
ENDBRANCH  51  55
ENDBRANCH  50  52
BRANCH  50  78
ATOM     78  CB  ASN A   4      -1.106  23.244  31.793  0.00  0.00    +0.114 C 
BRANCH  78  79
ATOM     79  CG  ASN A   4       0.327  22.869  32.037  0.00  0.00    +0.222 C 
ATOM     80  OD1 ASN A   4       0.636  21.712  32.333  0.00  0.00    -0.275 OA
ATOM     81  ND2 ASN A   4       1.220  23.850  31.916  0.00  0.00    -0.329 N 
ATOM     82 HD21 ASN A   4       2.230  23.656  32.073  0.00  0.00    +0.145 HD
ATOM     83 HD22 ASN A   4       0.908  24.809  31.664  0.00  0.00    +0.145 HD
ENDBRANCH  78  79
ENDBRANCH  50  78
ENDBRANCH  46  50
ENDBRANCH  45  47
BRANCH  45  84
ATOM     84  CB  VAL A   5      -6.564  21.478  30.905  0.00  0.00    +0.027 C 
ATOM     85  CG2 VAL A   5      -6.784  20.372  31.981  0.00  0.00    +0.002 C 
ATOM     86  CG1 VAL A   5      -6.034  20.936  29.538  0.00  0.00    +0.002 C 
ENDBRANCH  45  84
ENDBRANCH   1  45
TORSDOF 32
REMARK  Name = ../refined-set-2016/3ggu/3ggu_pocket.pdb
REMARK  216 active torsions:
REMARK  status: ('A' for Active; 'I' for Inactive)
REMARK    1  A    between atoms: _1  and  _3
REMARK    2  A    between atoms: _3  and  _4
REMARK    3  A    between atoms: _3  and  _6
REMARK    4  A    between atoms: _6  and  _7
REMARK    5  A    between atoms: _7  and  _8
REMARK    6  A    between atoms: _8  and  _9
REMARK    7  A    between atoms: _18  and  _20
REMARK    8  A    between atoms: _20  and  _21
REMARK    9  A    between atoms: _20  and  _23
REMARK   10  A    between atoms: _23  and  _24
REMARK   11  A    between atoms: _27  and  _29
REMARK   12  A    between atoms: _29  and  _30
REMARK   13  A    between atoms: _29  and  _32
REMARK   14  A    between atoms: _32  and  _33
REMARK   15  A    between atoms: _36  and  _38
REMARK   16  A    between atoms: _38  and  _39
REMARK   17  A    between atoms: _38  and  _41
REMARK   18  A    between atoms: _41  and  _42
REMARK   19  A    between atoms: _45  and  _47
REMARK   20  A    between atoms: _47  and  _48
REMARK   21  A    between atoms: _47  and  _50
REMARK   22  A    between atoms: _50  and  _51
REMARK   23  A    between atoms: _54  and  _56
REMARK   24  A    between atoms: _56  and  _57
REMARK   25  A    between atoms: _59  and  _61
REMARK   26  A    between atoms: _61  and  _62
REMARK   27  A    between atoms: _65  and  _67
REMARK   28  A    between atoms: _67  and  _68
REMARK   29  A    between atoms: _67  and  _70
REMARK   30  A    between atoms: _70  and  _71
REMARK   31  A    between atoms: _74  and  _76
REMARK   32  A    between atoms: _76  and  _77
REMARK   33  A    between atoms: _76  and  _79
REMARK   34  A    between atoms: _79  and  _80
REMARK   35  A    between atoms: _83  and  _85
REMARK   36  A    between atoms: _85  and  _86
REMARK   37  A    between atoms: _85  and  _88
REMARK   38  A    between atoms: _88  and  _89
REMARK   39  A    between atoms: _92  and  _94
REMARK   40  A    between atoms: _94  and  _95
REMARK   41  A    between atoms: _94  and  _97
REMARK   42  A    between atoms: _100  and  _102
REMARK   43  A    between atoms: _102  and  _103
REMARK   44  A    between atoms: _102  and  _105
REMARK   45  A    between atoms: _105  and  _106
REMARK   46  A    between atoms: _106  and  _107
REMARK   47  A    between atoms: _107  and  _108
REMARK   48  A    between atoms: _117  and  _119
REMARK   49  A    between atoms: _119  and  _120
REMARK   50  A    between atoms: _119  and  _122
REMARK   51  A    between atoms: _122  and  _123
REMARK   52  A    between atoms: _126  and  _128
REMARK   53  A    between atoms: _128  and  _129
REMARK   54  A    between atoms: _128  and  _131
REMARK   55  A    between atoms: _131  and  _132
REMARK   56  A    between atoms: _135  and  _137
REMARK   57  A    between atoms: _137  and  _138
REMARK   58  A    between atoms: _140  and  _142
REMARK   59  A    between atoms: _142  and  _143
REMARK   60  A    between atoms: _145  and  _147
REMARK   61  A    between atoms: _147  and  _148
REMARK   62  A    between atoms: _147  and  _150
REMARK   63  A    between atoms: _150  and  _151
REMARK   64  A    between atoms: _154  and  _156
REMARK   65  A    between atoms: _156  and  _157
REMARK   66  A    between atoms: _159  and  _161
REMARK   67  A    between atoms: _161  and  _162
REMARK   68  A    between atoms: _164  and  _166
REMARK   69  A    between atoms: _166  and  _167
REMARK   70  A    between atoms: _166  and  _169
REMARK   71  A    between atoms: _172  and  _174
REMARK   72  A    between atoms: _174  and  _175
REMARK   73  A    between atoms: _174  and  _177
REMARK   74  A    between atoms: _180  and  _182
REMARK   75  A    between atoms: _182  and  _183
REMARK   76  A    between atoms: _182  and  _185
REMARK   77  A    between atoms: _185  and  _186
REMARK   78  A    between atoms: _190  and  _191
REMARK   79  A    between atoms: _196  and  _198
REMARK   80  A    between atoms: _198  and  _199
REMARK   81  A    between atoms: _198  and  _201
REMARK   82  A    between atoms: _201  and  _202
REMARK   83  A    between atoms: _206  and  _207
REMARK   84  A    between atoms: _212  and  _214
REMARK   85  A    between atoms: _214  and  _215
REMARK   86  A    between atoms: _214  and  _217
REMARK   87  A    between atoms: _217  and  _218
REMARK   88  A    between atoms: _221  and  _223
REMARK   89  A    between atoms: _223  and  _224
REMARK   90  A    between atoms: _223  and  _226
REMARK   91  A    between atoms: _226  and  _227
REMARK   92  A    between atoms: _232  and  _234
REMARK   93  A    between atoms: _234  and  _235
REMARK   94  A    between atoms: _234  and  _237
REMARK   95  A    between atoms: _240  and  _242
REMARK   96  A    between atoms: _242  and  _243
REMARK   97  A    between atoms: _242  and  _245
REMARK   98  A    between atoms: _245  and  _246
REMARK   99  A    between atoms: _249  and  _251
REMARK  100  A    between atoms: _251  and  _252
REMARK  101  A    between atoms: _254  and  _256
REMARK  102  A    between atoms: _256  and  _257
REMARK  103  A    between atoms: _256  and  _259
REMARK  104  A    between atoms: _259  and  _260
REMARK  105  A    between atoms: _260  and  _261
REMARK  106  A    between atoms: _261  and  _262
REMARK  107  A    between atoms: _271  and  _273
REMARK  108  A    between atoms: _273  and  _274
REMARK  109  A    between atoms: _273  and  _276
REMARK  110  A    between atoms: _276  and  _277
REMARK  111  A    between atoms: _282  and  _284
REMARK  112  A    between atoms: _284  and  _285
REMARK  113  A    between atoms: _284  and  _287
REMARK  114  A    between atoms: _287  and  _288
REMARK  115  A    between atoms: _288  and  _289
REMARK  116  A    between atoms: _289  and  _290
REMARK  117  A    between atoms: _299  and  _301
REMARK  118  A    between atoms: _301  and  _302
REMARK  119  A    between atoms: _301  and  _304
REMARK  120  A    between atoms: _304  and  _305
REMARK  121  A    between atoms: _308  and  _310
REMARK  122  A    between atoms: _310  and  _311
REMARK  123  A    between atoms: _310  and  _313
REMARK  124  A    between atoms: _313  and  _314
REMARK  125  A    between atoms: _317  and  _319
REMARK  126  A    between atoms: _319  and  _320
REMARK  127  A    between atoms: _319  and  _322
REMARK  128  A    between atoms: _322  and  _323
REMARK  129  A    between atoms: _326  and  _328
REMARK  130  A    between atoms: _328  and  _329
REMARK  131  A    between atoms: _328  and  _331
REMARK  132  A    between atoms: _331  and  _332
REMARK  133  A    between atoms: _335  and  _337
REMARK  134  A    between atoms: _337  and  _338
REMARK  135  A    between atoms: _340  and  _342
REMARK  136  A    between atoms: _342  and  _343
REMARK  137  A    between atoms: _346  and  _348
REMARK  138  A    between atoms: _348  and  _349
REMARK  139  A    between atoms: _348  and  _351
REMARK  140  A    between atoms: _351  and  _352
REMARK  141  A    between atoms: _355  and  _357
REMARK  142  A    between atoms: _357  and  _358
REMARK  143  A    between atoms: _357  and  _360
REMARK  144  A    between atoms: _360  and  _361
REMARK  145  A    between atoms: _364  and  _366
REMARK  146  A    between atoms: _366  and  _367
REMARK  147  A    between atoms: _366  and  _369
REMARK  148  A    between atoms: _369  and  _370
REMARK  149  A    between atoms: _373  and  _375
REMARK  150  A    between atoms: _375  and  _376
REMARK  151  A    between atoms: _375  and  _378
REMARK  152  A    between atoms: _381  and  _383
REMARK  153  A    between atoms: _383  and  _384
REMARK  154  A    between atoms: _383  and  _386
REMARK  155  A    between atoms: _386  and  _387
REMARK  156  A    between atoms: _387  and  _388
REMARK  157  A    between atoms: _388  and  _389
REMARK  158  A    between atoms: _398  and  _400
REMARK  159  A    between atoms: _400  and  _401
REMARK  160  A    between atoms: _400  and  _403
REMARK  161  A    between atoms: _403  and  _404
REMARK  162  A    between atoms: _407  and  _409
REMARK  163  A    between atoms: _409  and  _410
REMARK  164  A    between atoms: _409  and  _412
REMARK  165  A    between atoms: _412  and  _413
REMARK  166  A    between atoms: _416  and  _418
REMARK  167  A    between atoms: _418  and  _419
REMARK  168  A    between atoms: _421  and  _423
REMARK  169  A    between atoms: _423  and  _424
REMARK  170  A    between atoms: _426  and  _428
REMARK  171  A    between atoms: _428  and  _429
REMARK  172  A    between atoms: _428  and  _431
REMARK  173  A    between atoms: _431  and  _432
REMARK  174  A    between atoms: _435  and  _437
REMARK  175  A    between atoms: _437  and  _438
REMARK  176  A    between atoms: _440  and  _442
REMARK  177  A    between atoms: _442  and  _443
REMARK  178  A    between atoms: _445  and  _447
REMARK  179  A    between atoms: _447  and  _448
REMARK  180  A    between atoms: _447  and  _450
REMARK  181  A    between atoms: _453  and  _455
REMARK  182  A    between atoms: _455  and  _456
REMARK  183  A    between atoms: _455  and  _458
REMARK  184  A    between atoms: _458  and  _459
REMARK  185  A    between atoms: _462  and  _464
REMARK  186  A    between atoms: _464  and  _465
REMARK  187  A    between atoms: _464  and  _467
REMARK  188  A    between atoms: _467  and  _468
REMARK  189  A    between atoms: _472  and  _473
REMARK  190  A    between atoms: _478  and  _480
REMARK  191  A    between atoms: _480  and  _481
REMARK  192  A    between atoms: _480  and  _483
REMARK  193  A    between atoms: _483  and  _484
REMARK  194  A    between atoms: _487  and  _489
REMARK  195  A    between atoms: _489  and  _490
REMARK  196  A    between atoms: _489  and  _492
REMARK  197  A    between atoms: _492  and  _493
REMARK  198  A    between atoms: _498  and  _500
REMARK  199  A    between atoms: _500  and  _501
REMARK  200  A    between atoms: _500  and  _503
REMARK  201  A    between atoms: _506  and  _508
REMARK  202  A    between atoms: _508  and  _509
REMARK  203  A    between atoms: _508  and  _511
REMARK  204  A    between atoms: _511  and  _512
REMARK  205  A    between atoms: _515  and  _517
REMARK  206  A    between atoms: _517  and  _518
REMARK  207  A    between atoms: _520  and  _522
REMARK  208  A    between atoms: _522  and  _523
REMARK  209  A    between atoms: _522  and  _525
REMARK  210  A    between atoms: _525  and  _526
REMARK  211  A    between atoms: _526  and  _527
REMARK  212  A    between atoms: _527  and  _528
REMARK  213  A    between atoms: _537  and  _539
REMARK  214  A    between atoms: _539  and  _540
REMARK  215  A    between atoms: _539  and  _542
REMARK  216  A    between atoms: _542  and  _543
REMARK                            x       y       z     vdW  Elec       q    Type
REMARK                         _______ _______ _______ _____ _____    ______ ____
ROOT
ATOM      1  O   HOH     1      -8.369  24.035  22.180  0.00  0.00    +0.000 OA
ENDROOT
TORSDOF 0
REMARK  Name = ../refined-set-2016/3ggu/3ggu_pocket.pdb
REMARK  216 active torsions:
REMARK  status: ('A' for Active; 'I' for Inactive)
REMARK    1  A    between atoms: _1  and  _3
REMARK    2  A    between atoms: _3  and  _4
REMARK    3  A    between atoms: _3  and  _6
REMARK    4  A    between atoms: _6  and  _7
REMARK    5  A    between atoms: _7  and  _8
REMARK    6  A    between atoms: _8  and  _9
REMARK    7  A    between atoms: _18  and  _20
REMARK    8  A    between atoms: _20  and  _21
REMARK    9  A    between atoms: _20  and  _23
REMARK   10  A    between atoms: _23  and  _24
REMARK   11  A    between atoms: _27  and  _29
REMARK   12  A    between atoms: _29  and  _30
REMARK   13  A    between atoms: _29  and  _32
REMARK   14  A    between atoms: _32  and  _33
REMARK   15  A    between atoms: _36  and  _38
REMARK   16  A    between atoms: _38  and  _39
REMARK   17  A    between atoms: _38  and  _41
REMARK   18  A    between atoms: _41  and  _42
REMARK   19  A    between atoms: _45  and  _47
REMARK   20  A    between atoms: _47  and  _48
REMARK   21  A    between atoms: _47  and  _50
REMARK   22  A    between atoms: _50  and  _51
REMARK   23  A    between atoms: _54  and  _56
REMARK   24  A    between atoms: _56  and  _57
REMARK   25  A    between atoms: _59  and  _61
REMARK   26  A    between atoms: _61  and  _62
REMARK   27  A    between atoms: _65  and  _67
REMARK   28  A    between atoms: _67  and  _68
REMARK   29  A    between atoms: _67  and  _70
REMARK   30  A    between atoms: _70  and  _71
REMARK   31  A    between atoms: _74  and  _76
REMARK   32  A    between atoms: _76  and  _77
REMARK   33  A    between atoms: _76  and  _79
REMARK   34  A    between atoms: _79  and  _80
REMARK   35  A    between atoms: _83  and  _85
REMARK   36  A    between atoms: _85  and  _86
REMARK   37  A    between atoms: _85  and  _88
REMARK   38  A    between atoms: _88  and  _89
REMARK   39  A    between atoms: _92  and  _94
REMARK   40  A    between atoms: _94  and  _95
REMARK   41  A    between atoms: _94  and  _97
REMARK   42  A    between atoms: _100  and  _102
REMARK   43  A    between atoms: _102  and  _103
REMARK   44  A    between atoms: _102  and  _105
REMARK   45  A    between atoms: _105  and  _106
REMARK   46  A    between atoms: _106  and  _107
REMARK   47  A    between atoms: _107  and  _108
REMARK   48  A    between atoms: _117  and  _119
REMARK   49  A    between atoms: _119  and  _120
REMARK   50  A    between atoms: _119  and  _122
REMARK   51  A    between atoms: _122  and  _123
REMARK   52  A    between atoms: _126  and  _128
REMARK   53  A    between atoms: _128  and  _129
REMARK   54  A    between atoms: _128  and  _131
REMARK   55  A    between atoms: _131  and  _132
REMARK   56  A    between atoms: _135  and  _137
REMARK   57  A    between atoms: _137  and  _138
REMARK   58  A    between atoms: _140  and  _142
REMARK   59  A    between atoms: _142  and  _143
REMARK   60  A    between atoms: _145  and  _147
REMARK   61  A    between atoms: _147  and  _148
REMARK   62  A    between atoms: _147  and  _150
REMARK   63  A    between atoms: _150  and  _151
REMARK   64  A    between atoms: _154  and  _156
REMARK   65  A    between atoms: _156  and  _157
REMARK   66  A    between atoms: _159  and  _161
REMARK   67  A    between atoms: _161  and  _162
REMARK   68  A    between atoms: _164  and  _166
REMARK   69  A    between atoms: _166  and  _167
REMARK   70  A    between atoms: _166  and  _169
REMARK   71  A    between atoms: _172  and  _174
REMARK   72  A    between atoms: _174  and  _175
REMARK   73  A    between atoms: _174  and  _177
REMARK   74  A    between atoms: _180  and  _182
REMARK   75  A    between atoms: _182  and  _183
REMARK   76  A    between atoms: _182  and  _185
REMARK   77  A    between atoms: _185  and  _186
REMARK   78  A    between atoms: _190  and  _191
REMARK   79  A    between atoms: _196  and  _198
REMARK   80  A    between atoms: _198  and  _199
REMARK   81  A    between atoms: _198  and  _201
REMARK   82  A    between atoms: _201  and  _202
REMARK   83  A    between atoms: _206  and  _207
REMARK   84  A    between atoms: _212  and  _214
REMARK   85  A    between atoms: _214  and  _215
REMARK   86  A    between atoms: _214  and  _217
REMARK   87  A    between atoms: _217  and  _218
REMARK   88  A    between atoms: _221  and  _223
REMARK   89  A    between atoms: _223  and  _224
REMARK   90  A    between atoms: _223  and  _226
REMARK   91  A    between atoms: _226  and  _227
REMARK   92  A    between atoms: _232  and  _234
REMARK   93  A    between atoms: _234  and  _235
REMARK   94  A    between atoms: _234  and  _237
REMARK   95  A    between atoms: _240  and  _242
REMARK   96  A    between atoms: _242  and  _243
REMARK   97  A    between atoms: _242  and  _245
REMARK   98  A    between atoms: _245  and  _246
REMARK   99  A    between atoms: _249  and  _251
REMARK  100  A    between atoms: _251  and  _252
REMARK  101  A    between atoms: _254  and  _256
REMARK  102  A    between atoms: _256  and  _257
REMARK  103  A    between atoms: _256  and  _259
REMARK  104  A    between atoms: _259  and  _260
REMARK  105  A    between atoms: _260  and  _261
REMARK  106  A    between atoms: _261  and  _262
REMARK  107  A    between atoms: _271  and  _273
REMARK  108  A    between atoms: _273  and  _274
REMARK  109  A    between atoms: _273  and  _276
REMARK  110  A    between atoms: _276  and  _277
REMARK  111  A    between atoms: _282  and  _284
REMARK  112  A    between atoms: _284  and  _285
REMARK  113  A    between atoms: _284  and  _287
REMARK  114  A    between atoms: _287  and  _288
REMARK  115  A    between atoms: _288  and  _289
REMARK  116  A    between atoms: _289  and  _290
REMARK  117  A    between atoms: _299  and  _301
REMARK  118  A    between atoms: _301  and  _302
REMARK  119  A    between atoms: _301  and  _304
REMARK  120  A    between atoms: _304  and  _305
REMARK  121  A    between atoms: _308  and  _310
REMARK  122  A    between atoms: _310  and  _311
REMARK  123  A    between atoms: _310  and  _313
REMARK  124  A    between atoms: _313  and  _314
REMARK  125  A    between atoms: _317  and  _319
REMARK  126  A    between atoms: _319  and  _320
REMARK  127  A    between atoms: _319  and  _322
REMARK  128  A    between atoms: _322  and  _323
REMARK  129  A    between atoms: _326  and  _328
REMARK  130  A    between atoms: _328  and  _329
REMARK  131  A    between atoms: _328  and  _331
REMARK  132  A    between atoms: _331  and  _332
REMARK  133  A    between atoms: _335  and  _337
REMARK  134  A    between atoms: _337  and  _338
REMARK  135  A    between atoms: _340  and  _342
REMARK  136  A    between atoms: _342  and  _343
REMARK  137  A    between atoms: _346  and  _348
REMARK  138  A    between atoms: _348  and  _349
REMARK  139  A    between atoms: _348  and  _351
REMARK  140  A    between atoms: _351  and  _352
REMARK  141  A    between atoms: _355  and  _357
REMARK  142  A    between atoms: _357  and  _358
REMARK  143  A    between atoms: _357  and  _360
REMARK  144  A    between atoms: _360  and  _361
REMARK  145  A    between atoms: _364  and  _366
REMARK  146  A    between atoms: _366  and  _367
REMARK  147  A    between atoms: _366  and  _369
REMARK  148  A    between atoms: _369  and  _370
REMARK  149  A    between atoms: _373  and  _375
REMARK  150  A    between atoms: _375  and  _376
REMARK  151  A    between atoms: _375  and  _378
REMARK  152  A    between atoms: _381  and  _383
REMARK  153  A    between atoms: _383  and  _384
REMARK  154  A    between atoms: _383  and  _386
REMARK  155  A    between atoms: _386  and  _387
REMARK  156  A    between atoms: _387  and  _388
REMARK  157  A    between atoms: _388  and  _389
REMARK  158  A    between atoms: _398  and  _400
REMARK  159  A    between atoms: _400  and  _401
REMARK  160  A    between atoms: _400  and  _403
REMARK  161  A    between atoms: _403  and  _404
REMARK  162  A    between atoms: _407  and  _409
REMARK  163  A    between atoms: _409  and  _410
REMARK  164  A    between atoms: _409  and  _412
REMARK  165  A    between atoms: _412  and  _413
REMARK  166  A    between atoms: _416  and  _418
REMARK  167  A    between atoms: _418  and  _419
REMARK  168  A    between atoms: _421  and  _423
REMARK  169  A    between atoms: _423  and  _424
REMARK  170  A    between atoms: _426  and  _428
REMARK  171  A    between atoms: _428  and  _429
REMARK  172  A    between atoms: _428  and  _431
REMARK  173  A    between atoms: _431  and  _432
REMARK  174  A    between atoms: _435  and  _437
REMARK  175  A    between atoms: _437  and  _438
REMARK  176  A    between atoms: _440  and  _442
REMARK  177  A    between atoms: _442  and  _443
REMARK  178  A    between atoms: _445  and  _447
REMARK  179  A    between atoms: _447  and  _448
REMARK  180  A    between atoms: _447  and  _450
REMARK  181  A    between atoms: _453  and  _455
REMARK  182  A    between atoms: _455  and  _456
REMARK  183  A    between atoms: _455  and  _458
REMARK  184  A    between atoms: _458  and  _459
REMARK  185  A    between atoms: _462  and  _464
REMARK  186  A    between atoms: _464  and  _465
REMARK  187  A    between atoms: _464  and  _467
REMARK  188  A    between atoms: _467  and  _468
REMARK  189  A    between atoms: _472  and  _473
REMARK  190  A    between atoms: _478  and  _480
REMARK  191  A    between atoms: _480  and  _481
REMARK  192  A    between atoms: _480  and  _483
REMARK  193  A    between atoms: _483  and  _484
REMARK  194  A    between atoms: _487  and  _489
REMARK  195  A    between atoms: _489  and  _490
REMARK  196  A    between atoms: _489  and  _492
REMARK  197  A    between atoms: _492  and  _493
REMARK  198  A    between atoms: _498  and  _500
REMARK  199  A    between atoms: _500  and  _501
REMARK  200  A    between atoms: _500  and  _503
REMARK  201  A    between atoms: _506  and  _508
REMARK  202  A    between atoms: _508  and  _509
REMARK  203  A    between atoms: _508  and  _511
REMARK  204  A    between atoms: _511  and  _512
REMARK  205  A    between atoms: _515  and  _517
REMARK  206  A    between atoms: _517  and  _518
REMARK  207  A    between atoms: _520  and  _522
REMARK  208  A    between atoms: _522  and  _523
REMARK  209  A    between atoms: _522  and  _525
REMARK  210  A    between atoms: _525  and  _526
REMARK  211  A    between atoms: _526  and  _527
REMARK  212  A    between atoms: _527  and  _528
REMARK  213  A    between atoms: _537  and  _539
REMARK  214  A    between atoms: _539  and  _540
REMARK  215  A    between atoms: _539  and  _542
REMARK  216  A    between atoms: _542  and  _543
REMARK                            x       y       z     vdW  Elec       q    Type
REMARK                         _______ _______ _______ _____ _____    ______ ____
ROOT
ATOM      1  O   HOH     1     -18.315   8.538  24.045  0.00  0.00    +0.000 OA
ENDROOT
TORSDOF 0
REMARK  Name = ../refined-set-2016/3ggu/3ggu_pocket.pdb
REMARK  216 active torsions:
REMARK  status: ('A' for Active; 'I' for Inactive)
REMARK    1  A    between atoms: _1  and  _3
REMARK    2  A    between atoms: _3  and  _4
REMARK    3  A    between atoms: _3  and  _6
REMARK    4  A    between atoms: _6  and  _7
REMARK    5  A    between atoms: _7  and  _8
REMARK    6  A    between atoms: _8  and  _9
REMARK    7  A    between atoms: _18  and  _20
REMARK    8  A    between atoms: _20  and  _21
REMARK    9  A    between atoms: _20  and  _23
REMARK   10  A    between atoms: _23  and  _24
REMARK   11  A    between atoms: _27  and  _29
REMARK   12  A    between atoms: _29  and  _30
REMARK   13  A    between atoms: _29  and  _32
REMARK   14  A    between atoms: _32  and  _33
REMARK   15  A    between atoms: _36  and  _38
REMARK   16  A    between atoms: _38  and  _39
REMARK   17  A    between atoms: _38  and  _41
REMARK   18  A    between atoms: _41  and  _42
REMARK   19  A    between atoms: _45  and  _47
REMARK   20  A    between atoms: _47  and  _48
REMARK   21  A    between atoms: _47  and  _50
REMARK   22  A    between atoms: _50  and  _51
REMARK   23  A    between atoms: _54  and  _56
REMARK   24  A    between atoms: _56  and  _57
REMARK   25  A    between atoms: _59  and  _61
REMARK   26  A    between atoms: _61  and  _62
REMARK   27  A    between atoms: _65  and  _67
REMARK   28  A    between atoms: _67  and  _68
REMARK   29  A    between atoms: _67  and  _70
REMARK   30  A    between atoms: _70  and  _71
REMARK   31  A    between atoms: _74  and  _76
REMARK   32  A    between atoms: _76  and  _77
REMARK   33  A    between atoms: _76  and  _79
REMARK   34  A    between atoms: _79  and  _80
REMARK   35  A    between atoms: _83  and  _85
REMARK   36  A    between atoms: _85  and  _86
REMARK   37  A    between atoms: _85  and  _88
REMARK   38  A    between atoms: _88  and  _89
REMARK   39  A    between atoms: _92  and  _94
REMARK   40  A    between atoms: _94  and  _95
REMARK   41  A    between atoms: _94  and  _97
REMARK   42  A    between atoms: _100  and  _102
REMARK   43  A    between atoms: _102  and  _103
REMARK   44  A    between atoms: _102  and  _105
REMARK   45  A    between atoms: _105  and  _106
REMARK   46  A    between atoms: _106  and  _107
REMARK   47  A    between atoms: _107  and  _108
REMARK   48  A    between atoms: _117  and  _119
REMARK   49  A    between atoms: _119  and  _120
REMARK   50  A    between atoms: _119  and  _122
REMARK   51  A    between atoms: _122  and  _123
REMARK   52  A    between atoms: _126  and  _128
REMARK   53  A    between atoms: _128  and  _129
REMARK   54  A    between atoms: _128  and  _131
REMARK   55  A    between atoms: _131  and  _132
REMARK   56  A    between atoms: _135  and  _137
REMARK   57  A    between atoms: _137  and  _138
REMARK   58  A    between atoms: _140  and  _142
REMARK   59  A    between atoms: _142  and  _143
REMARK   60  A    between atoms: _145  and  _147
REMARK   61  A    between atoms: _147  and  _148
REMARK   62  A    between atoms: _147  and  _150
REMARK   63  A    between atoms: _150  and  _151
REMARK   64  A    between atoms: _154  and  _156
REMARK   65  A    between atoms: _156  and  _157
REMARK   66  A    between atoms: _159  and  _161
REMARK   67  A    between atoms: _161  and  _162
REMARK   68  A    between atoms: _164  and  _166
REMARK   69  A    between atoms: _166  and  _167
REMARK   70  A    between atoms: _166  and  _169
REMARK   71  A    between atoms: _172  and  _174
REMARK   72  A    between atoms: _174  and  _175
REMARK   73  A    between atoms: _174  and  _177
REMARK   74  A    between atoms: _180  and  _182
REMARK   75  A    between atoms: _182  and  _183
REMARK   76  A    between atoms: _182  and  _185
REMARK   77  A    between atoms: _185  and  _186
REMARK   78  A    between atoms: _190  and  _191
REMARK   79  A    between atoms: _196  and  _198
REMARK   80  A    between atoms: _198  and  _199
REMARK   81  A    between atoms: _198  and  _201
REMARK   82  A    between atoms: _201  and  _202
REMARK   83  A    between atoms: _206  and  _207
REMARK   84  A    between atoms: _212  and  _214
REMARK   85  A    between atoms: _214  and  _215
REMARK   86  A    between atoms: _214  and  _217
REMARK   87  A    between atoms: _217  and  _218
REMARK   88  A    between atoms: _221  and  _223
REMARK   89  A    between atoms: _223  and  _224
REMARK   90  A    between atoms: _223  and  _226
REMARK   91  A    between atoms: _226  and  _227
REMARK   92  A    between atoms: _232  and  _234
REMARK   93  A    between atoms: _234  and  _235
REMARK   94  A    between atoms: _234  and  _237
REMARK   95  A    between atoms: _240  and  _242
REMARK   96  A    between atoms: _242  and  _243
REMARK   97  A    between atoms: _242  and  _245
REMARK   98  A    between atoms: _245  and  _246
REMARK   99  A    between atoms: _249  and  _251
REMARK  100  A    between atoms: _251  and  _252
REMARK  101  A    between atoms: _254  and  _256
REMARK  102  A    between atoms: _256  and  _257
REMARK  103  A    between atoms: _256  and  _259
REMARK  104  A    between atoms: _259  and  _260
REMARK  105  A    between atoms: _260  and  _261
REMARK  106  A    between atoms: _261  and  _262
REMARK  107  A    between atoms: _271  and  _273
REMARK  108  A    between atoms: _273  and  _274
REMARK  109  A    between atoms: _273  and  _276
REMARK  110  A    between atoms: _276  and  _277
REMARK  111  A    between atoms: _282  and  _284
REMARK  112  A    between atoms: _284  and  _285
REMARK  113  A    between atoms: _284  and  _287
REMARK  114  A    between atoms: _287  and  _288
REMARK  115  A    between atoms: _288  and  _289
REMARK  116  A    between atoms: _289  and  _290
REMARK  117  A    between atoms: _299  and  _301
REMARK  118  A    between atoms: _301  and  _302
REMARK  119  A    between atoms: _301  and  _304
REMARK  120  A    between atoms: _304  and  _305
REMARK  121  A    between atoms: _308  and  _310
REMARK  122  A    between atoms: _310  and  _311
REMARK  123  A    between atoms: _310  and  _313
REMARK  124  A    between atoms: _313  and  _314
REMARK  125  A    between atoms: _317  and  _319
REMARK  126  A    between atoms: _319  and  _320
REMARK  127  A    between atoms: _319  and  _322
REMARK  128  A    between atoms: _322  and  _323
REMARK  129  A    between atoms: _326  and  _328
REMARK  130  A    between atoms: _328  and  _329
REMARK  131  A    between atoms: _328  and  _331
REMARK  132  A    between atoms: _331  and  _332
REMARK  133  A    between atoms: _335  and  _337
REMARK  134  A    between atoms: _337  and  _338
REMARK  135  A    between atoms: _340  and  _342
REMARK  136  A    between atoms: _342  and  _343
REMARK  137  A    between atoms: _346  and  _348
REMARK  138  A    between atoms: _348  and  _349
REMARK  139  A    between atoms: _348  and  _351
REMARK  140  A    between atoms: _351  and  _352
REMARK  141  A    between atoms: _355  and  _357
REMARK  142  A    between atoms: _357  and  _358
REMARK  143  A    between atoms: _357  and  _360
REMARK  144  A    between atoms: _360  and  _361
REMARK  145  A    between atoms: _364  and  _366
REMARK  146  A    between atoms: _366  and  _367
REMARK  147  A    between atoms: _366  and  _369
REMARK  148  A    between atoms: _369  and  _370
REMARK  149  A    between atoms: _373  and  _375
REMARK  150  A    between atoms: _375  and  _376
REMARK  151  A    between atoms: _375  and  _378
REMARK  152  A    between atoms: _381  and  _383
REMARK  153  A    between atoms: _383  and  _384
REMARK  154  A    between atoms: _383  and  _386
REMARK  155  A    between atoms: _386  and  _387
REMARK  156  A    between atoms: _387  and  _388
REMARK  157  A    between atoms: _388  and  _389
REMARK  158  A    between atoms: _398  and  _400
REMARK  159  A    between atoms: _400  and  _401
REMARK  160  A    between atoms: _400  and  _403
REMARK  161  A    between atoms: _403  and  _404
REMARK  162  A    between atoms: _407  and  _409
REMARK  163  A    between atoms: _409  and  _410
REMARK  164  A    between atoms: _409  and  _412
REMARK  165  A    between atoms: _412  and  _413
REMARK  166  A    between atoms: _416  and  _418
REMARK  167  A    between atoms: _418  and  _419
REMARK  168  A    between atoms: _421  and  _423
REMARK  169  A    between atoms: _423  and  _424
REMARK  170  A    between atoms: _426  and  _428
REMARK  171  A    between atoms: _428  and  _429
REMARK  172  A    between atoms: _428  and  _431
REMARK  173  A    between atoms: _431  and  _432
REMARK  174  A    between atoms: _435  and  _437
REMARK  175  A    between atoms: _437  and  _438
REMARK  176  A    between atoms: _440  and  _442
REMARK  177  A    between atoms: _442  and  _443
REMARK  178  A    between atoms: _445  and  _447
REMARK  179  A    between atoms: _447  and  _448
REMARK  180  A    between atoms: _447  and  _450
REMARK  181  A    between atoms: _453  and  _455
REMARK  182  A    between atoms: _455  and  _456
REMARK  183  A    between atoms: _455  and  _458
REMARK  184  A    between atoms: _458  and  _459
REMARK  185  A    between atoms: _462  and  _464
REMARK  186  A    between atoms: _464  and  _465
REMARK  187  A    between atoms: _464  and  _467
REMARK  188  A    between atoms: _467  and  _468
REMARK  189  A    between atoms: _472  and  _473
REMARK  190  A    between atoms: _478  and  _480
REMARK  191  A    between atoms: _480  and  _481
REMARK  192  A    between atoms: _480  and  _483
REMARK  193  A    between atoms: _483  and  _484
REMARK  194  A    between atoms: _487  and  _489
REMARK  195  A    between atoms: _489  and  _490
REMARK  196  A    between atoms: _489  and  _492
REMARK  197  A    between atoms: _492  and  _493
REMARK  198  A    between atoms: _498  and  _500
REMARK  199  A    between atoms: _500  and  _501
REMARK  200  A    between atoms: _500  and  _503
REMARK  201  A    between atoms: _506  and  _508
REMARK  202  A    between atoms: _508  and  _509
REMARK  203  A    between atoms: _508  and  _511
REMARK  204  A    between atoms: _511  and  _512
REMARK  205  A    between atoms: _515  and  _517
REMARK  206  A    between atoms: _517  and  _518
REMARK  207  A    between atoms: _520  and  _522
REMARK  208  A    between atoms: _522  and  _523
REMARK  209  A    between atoms: _522  and  _525
REMARK  210  A    between atoms: _525  and  _526
REMARK  211  A    between atoms: _526  and  _527
REMARK  212  A    between atoms: _527  and  _528
REMARK  213  A    between atoms: _537  and  _539
REMARK  214  A    between atoms: _539  and  _540
REMARK  215  A    between atoms: _539  and  _542
REMARK  216  A    between atoms: _542  and  _543
REMARK                            x       y       z     vdW  Elec       q    Type
REMARK                         _______ _______ _______ _____ _____    ______ ____
ROOT
ATOM      1  O   HOH     1      -1.047  12.937  23.784  0.00  0.00    +0.000 OA
ENDROOT
TORSDOF 0
REMARK  Name = ../refined-set-2016/3ggu/3ggu_pocket.pdb
REMARK  216 active torsions:
REMARK  status: ('A' for Active; 'I' for Inactive)
REMARK    1  A    between atoms: _1  and  _3
REMARK    2  A    between atoms: _3  and  _4
REMARK    3  A    between atoms: _3  and  _6
REMARK    4  A    between atoms: _6  and  _7
REMARK    5  A    between atoms: _7  and  _8
REMARK    6  A    between atoms: _8  and  _9
REMARK    7  A    between atoms: _18  and  _20
REMARK    8  A    between atoms: _20  and  _21
REMARK    9  A    between atoms: _20  and  _23
REMARK   10  A    between atoms: _23  and  _24
REMARK   11  A    between atoms: _27  and  _29
REMARK   12  A    between atoms: _29  and  _30
REMARK   13  A    between atoms: _29  and  _32
REMARK   14  A    between atoms: _32  and  _33
REMARK   15  A    between atoms: _36  and  _38
REMARK   16  A    between atoms: _38  and  _39
REMARK   17  A    between atoms: _38  and  _41
REMARK   18  A    between atoms: _41  and  _42
REMARK   19  A    between atoms: _45  and  _47
REMARK   20  A    between atoms: _47  and  _48
REMARK   21  A    between atoms: _47  and  _50
REMARK   22  A    between atoms: _50  and  _51
REMARK   23  A    between atoms: _54  and  _56
REMARK   24  A    between atoms: _56  and  _57
REMARK   25  A    between atoms: _59  and  _61
REMARK   26  A    between atoms: _61  and  _62
REMARK   27  A    between atoms: _65  and  _67
REMARK   28  A    between atoms: _67  and  _68
REMARK   29  A    between atoms: _67  and  _70
REMARK   30  A    between atoms: _70  and  _71
REMARK   31  A    between atoms: _74  and  _76
REMARK   32  A    between atoms: _76  and  _77
REMARK   33  A    between atoms: _76  and  _79
REMARK   34  A    between atoms: _79  and  _80
REMARK   35  A    between atoms: _83  and  _85
REMARK   36  A    between atoms: _85  and  _86
REMARK   37  A    between atoms: _85  and  _88
REMARK   38  A    between atoms: _88  and  _89
REMARK   39  A    between atoms: _92  and  _94
REMARK   40  A    between atoms: _94  and  _95
REMARK   41  A    between atoms: _94  and  _97
REMARK   42  A    between atoms: _100  and  _102
REMARK   43  A    between atoms: _102  and  _103
REMARK   44  A    between atoms: _102  and  _105
REMARK   45  A    between atoms: _105  and  _106
REMARK   46  A    between atoms: _106  and  _107
REMARK   47  A    between atoms: _107  and  _108
REMARK   48  A    between atoms: _117  and  _119
REMARK   49  A    between atoms: _119  and  _120
REMARK   50  A    between atoms: _119  and  _122
REMARK   51  A    between atoms: _122  and  _123
REMARK   52  A    between atoms: _126  and  _128
REMARK   53  A    between atoms: _128  and  _129
REMARK   54  A    between atoms: _128  and  _131
REMARK   55  A    between atoms: _131  and  _132
REMARK   56  A    between atoms: _135  and  _137
REMARK   57  A    between atoms: _137  and  _138
REMARK   58  A    between atoms: _140  and  _142
REMARK   59  A    between atoms: _142  and  _143
REMARK   60  A    between atoms: _145  and  _147
REMARK   61  A    between atoms: _147  and  _148
REMARK   62  A    between atoms: _147  and  _150
REMARK   63  A    between atoms: _150  and  _151
REMARK   64  A    between atoms: _154  and  _156
REMARK   65  A    between atoms: _156  and  _157
REMARK   66  A    between atoms: _159  and  _161
REMARK   67  A    between atoms: _161  and  _162
REMARK   68  A    between atoms: _164  and  _166
REMARK   69  A    between atoms: _166  and  _167
REMARK   70  A    between atoms: _166  and  _169
REMARK   71  A    between atoms: _172  and  _174
REMARK   72  A    between atoms: _174  and  _175
REMARK   73  A    between atoms: _174  and  _177
REMARK   74  A    between atoms: _180  and  _182
REMARK   75  A    between atoms: _182  and  _183
REMARK   76  A    between atoms: _182  and  _185
REMARK   77  A    between atoms: _185  and  _186
REMARK   78  A    between atoms: _190  and  _191
REMARK   79  A    between atoms: _196  and  _198
REMARK   80  A    between atoms: _198  and  _199
REMARK   81  A    between atoms: _198  and  _201
REMARK   82  A    between atoms: _201  and  _202
REMARK   83  A    between atoms: _206  and  _207
REMARK   84  A    between atoms: _212  and  _214
REMARK   85  A    between atoms: _214  and  _215
REMARK   86  A    between atoms: _214  and  _217
REMARK   87  A    between atoms: _217  and  _218
REMARK   88  A    between atoms: _221  and  _223
REMARK   89  A    between atoms: _223  and  _224
REMARK   90  A    between atoms: _223  and  _226
REMARK   91  A    between atoms: _226  and  _227
REMARK   92  A    between atoms: _232  and  _234
REMARK   93  A    between atoms: _234  and  _235
REMARK   94  A    between atoms: _234  and  _237
REMARK   95  A    between atoms: _240  and  _242
REMARK   96  A    between atoms: _242  and  _243
REMARK   97  A    between atoms: _242  and  _245
REMARK   98  A    between atoms: _245  and  _246
REMARK   99  A    between atoms: _249  and  _251
REMARK  100  A    between atoms: _251  and  _252
REMARK  101  A    between atoms: _254  and  _256
REMARK  102  A    between atoms: _256  and  _257
REMARK  103  A    between atoms: _256  and  _259
REMARK  104  A    between atoms: _259  and  _260
REMARK  105  A    between atoms: _260  and  _261
REMARK  106  A    between atoms: _261  and  _262
REMARK  107  A    between atoms: _271  and  _273
REMARK  108  A    between atoms: _273  and  _274
REMARK  109  A    between atoms: _273  and  _276
REMARK  110  A    between atoms: _276  and  _277
REMARK  111  A    between atoms: _282  and  _284
REMARK  112  A    between atoms: _284  and  _285
REMARK  113  A    between atoms: _284  and  _287
REMARK  114  A    between atoms: _287  and  _288
REMARK  115  A    between atoms: _288  and  _289
REMARK  116  A    between atoms: _289  and  _290
REMARK  117  A    between atoms: _299  and  _301
REMARK  118  A    between atoms: _301  and  _302
REMARK  119  A    between atoms: _301  and  _304
REMARK  120  A    between atoms: _304  and  _305
REMARK  121  A    between atoms: _308  and  _310
REMARK  122  A    between atoms: _310  and  _311
REMARK  123  A    between atoms: _310  and  _313
REMARK  124  A    between atoms: _313  and  _314
REMARK  125  A    between atoms: _317  and  _319
REMARK  126  A    between atoms: _319  and  _320
REMARK  127  A    between atoms: _319  and  _322
REMARK  128  A    between atoms: _322  and  _323
REMARK  129  A    between atoms: _326  and  _328
REMARK  130  A    between atoms: _328  and  _329
REMARK  131  A    between atoms: _328  and  _331
REMARK  132  A    between atoms: _331  and  _332
REMARK  133  A    between atoms: _335  and  _337
REMARK  134  A    between atoms: _337  and  _338
REMARK  135  A    between atoms: _340  and  _342
REMARK  136  A    between atoms: _342  and  _343
REMARK  137  A    between atoms: _346  and  _348
REMARK  138  A    between atoms: _348  and  _349
REMARK  139  A    between atoms: _348  and  _351
REMARK  140  A    between atoms: _351  and  _352
REMARK  141  A    between atoms: _355  and  _357
REMARK  142  A    between atoms: _357  and  _358
REMARK  143  A    between atoms: _357  and  _360
REMARK  144  A    between atoms: _360  and  _361
REMARK  145  A    between atoms: _364  and  _366
REMARK  146  A    between atoms: _366  and  _367
REMARK  147  A    between atoms: _366  and  _369
REMARK  148  A    between atoms: _369  and  _370
REMARK  149  A    between atoms: _373  and  _375
REMARK  150  A    between atoms: _375  and  _376
REMARK  151  A    between atoms: _375  and  _378
REMARK  152  A    between atoms: _381  and  _383
REMARK  153  A    between atoms: _383  and  _384
REMARK  154  A    between atoms: _383  and  _386
REMARK  155  A    between atoms: _386  and  _387
REMARK  156  A    between atoms: _387  and  _388
REMARK  157  A    between atoms: _388  and  _389
REMARK  158  A    between atoms: _398  and  _400
REMARK  159  A    between atoms: _400  and  _401
REMARK  160  A    between atoms: _400  and  _403
REMARK  161  A    between atoms: _403  and  _404
REMARK  162  A    between atoms: _407  and  _409
REMARK  163  A    between atoms: _409  and  _410
REMARK  164  A    between atoms: _409  and  _412
REMARK  165  A    between atoms: _412  and  _413
REMARK  166  A    between atoms: _416  and  _418
REMARK  167  A    between atoms: _418  and  _419
REMARK  168  A    between atoms: _421  and  _423
REMARK  169  A    between atoms: _423  and  _424
REMARK  170  A    between atoms: _426  and  _428
REMARK  171  A    between atoms: _428  and  _429
REMARK  172  A    between atoms: _428  and  _431
REMARK  173  A    between atoms: _431  and  _432
REMARK  174  A    between atoms: _435  and  _437
REMARK  175  A    between atoms: _437  and  _438
REMARK  176  A    between atoms: _440  and  _442
REMARK  177  A    between atoms: _442  and  _443
REMARK  178  A    between atoms: _445  and  _447
REMARK  179  A    between atoms: _447  and  _448
REMARK  180  A    between atoms: _447  and  _450
REMARK  181  A    between atoms: _453  and  _455
REMARK  182  A    between atoms: _455  and  _456
REMARK  183  A    between atoms: _455  and  _458
REMARK  184  A    between atoms: _458  and  _459
REMARK  185  A    between atoms: _462  and  _464
REMARK  186  A    between atoms: _464  and  _465
REMARK  187  A    between atoms: _464  and  _467
REMARK  188  A    between atoms: _467  and  _468
REMARK  189  A    between atoms: _472  and  _473
REMARK  190  A    between atoms: _478  and  _480
REMARK  191  A    between atoms: _480  and  _481
REMARK  192  A    between atoms: _480  and  _483
REMARK  193  A    between atoms: _483  and  _484
REMARK  194  A    between atoms: _487  and  _489
REMARK  195  A    between atoms: _489  and  _490
REMARK  196  A    between atoms: _489  and  _492
REMARK  197  A    between atoms: _492  and  _493
REMARK  198  A    between atoms: _498  and  _500
REMARK  199  A    between atoms: _500  and  _501
REMARK  200  A    between atoms: _500  and  _503
REMARK  201  A    between atoms: _506  and  _508
REMARK  202  A    between atoms: _508  and  _509
REMARK  203  A    between atoms: _508  and  _511
REMARK  204  A    between atoms: _511  and  _512
REMARK  205  A    between atoms: _515  and  _517
REMARK  206  A    between atoms: _517  and  _518
REMARK  207  A    between atoms: _520  and  _522
REMARK  208  A    between atoms: _522  and  _523
REMARK  209  A    between atoms: _522  and  _525
REMARK  210  A    between atoms: _525  and  _526
REMARK  211  A    between atoms: _526  and  _527
REMARK  212  A    between atoms: _527  and  _528
REMARK  213  A    between atoms: _537  and  _539
REMARK  214  A    between atoms: _539  and  _540
REMARK  215  A    between atoms: _539  and  _542
REMARK  216  A    between atoms: _542  and  _543
REMARK                            x       y       z     vdW  Elec       q    Type
REMARK                         _______ _______ _______ _____ _____    ______ ____
ROOT
ATOM      1  O   HOH     1      -6.977  19.997  14.456  0.00  0.00    +0.000 OA
ENDROOT
TORSDOF 0
REMARK  Name = ../refined-set-2016/3ggu/3ggu_pocket.pdb
REMARK  216 active torsions:
REMARK  status: ('A' for Active; 'I' for Inactive)
REMARK    1  A    between atoms: _1  and  _3
REMARK    2  A    between atoms: _3  and  _4
REMARK    3  A    between atoms: _3  and  _6
REMARK    4  A    between atoms: _6  and  _7
REMARK    5  A    between atoms: _7  and  _8
REMARK    6  A    between atoms: _8  and  _9
REMARK    7  A    between atoms: _18  and  _20
REMARK    8  A    between atoms: _20  and  _21
REMARK    9  A    between atoms: _20  and  _23
REMARK   10  A    between atoms: _23  and  _24
REMARK   11  A    between atoms: _27  and  _29
REMARK   12  A    between atoms: _29  and  _30
REMARK   13  A    between atoms: _29  and  _32
REMARK   14  A    between atoms: _32  and  _33
REMARK   15  A    between atoms: _36  and  _38
REMARK   16  A    between atoms: _38  and  _39
REMARK   17  A    between atoms: _38  and  _41
REMARK   18  A    between atoms: _41  and  _42
REMARK   19  A    between atoms: _45  and  _47
REMARK   20  A    between atoms: _47  and  _48
REMARK   21  A    between atoms: _47  and  _50
REMARK   22  A    between atoms: _50  and  _51
REMARK   23  A    between atoms: _54  and  _56
REMARK   24  A    between atoms: _56  and  _57
REMARK   25  A    between atoms: _59  and  _61
REMARK   26  A    between atoms: _61  and  _62
REMARK   27  A    between atoms: _65  and  _67
REMARK   28  A    between atoms: _67  and  _68
REMARK   29  A    between atoms: _67  and  _70
REMARK   30  A    between atoms: _70  and  _71
REMARK   31  A    between atoms: _74  and  _76
REMARK   32  A    between atoms: _76  and  _77
REMARK   33  A    between atoms: _76  and  _79
REMARK   34  A    between atoms: _79  and  _80
REMARK   35  A    between atoms: _83  and  _85
REMARK   36  A    between atoms: _85  and  _86
REMARK   37  A    between atoms: _85  and  _88
REMARK   38  A    between atoms: _88  and  _89
REMARK   39  A    between atoms: _92  and  _94
REMARK   40  A    between atoms: _94  and  _95
REMARK   41  A    between atoms: _94  and  _97
REMARK   42  A    between atoms: _100  and  _102
REMARK   43  A    between atoms: _102  and  _103
REMARK   44  A    between atoms: _102  and  _105
REMARK   45  A    between atoms: _105  and  _106
REMARK   46  A    between atoms: _106  and  _107
REMARK   47  A    between atoms: _107  and  _108
REMARK   48  A    between atoms: _117  and  _119
REMARK   49  A    between atoms: _119  and  _120
REMARK   50  A    between atoms: _119  and  _122
REMARK   51  A    between atoms: _122  and  _123
REMARK   52  A    between atoms: _126  and  _128
REMARK   53  A    between atoms: _128  and  _129
REMARK   54  A    between atoms: _128  and  _131
REMARK   55  A    between atoms: _131  and  _132
REMARK   56  A    between atoms: _135  and  _137
REMARK   57  A    between atoms: _137  and  _138
REMARK   58  A    between atoms: _140  and  _142
REMARK   59  A    between atoms: _142  and  _143
REMARK   60  A    between atoms: _145  and  _147
REMARK   61  A    between atoms: _147  and  _148
REMARK   62  A    between atoms: _147  and  _150
REMARK   63  A    between atoms: _150  and  _151
REMARK   64  A    between atoms: _154  and  _156
REMARK   65  A    between atoms: _156  and  _157
REMARK   66  A    between atoms: _159  and  _161
REMARK   67  A    between atoms: _161  and  _162
REMARK   68  A    between atoms: _164  and  _166
REMARK   69  A    between atoms: _166  and  _167
REMARK   70  A    between atoms: _166  and  _169
REMARK   71  A    between atoms: _172  and  _174
REMARK   72  A    between atoms: _174  and  _175
REMARK   73  A    between atoms: _174  and  _177
REMARK   74  A    between atoms: _180  and  _182
REMARK   75  A    between atoms: _182  and  _183
REMARK   76  A    between atoms: _182  and  _185
REMARK   77  A    between atoms: _185  and  _186
REMARK   78  A    between atoms: _190  and  _191
REMARK   79  A    between atoms: _196  and  _198
REMARK   80  A    between atoms: _198  and  _199
REMARK   81  A    between atoms: _198  and  _201
REMARK   82  A    between atoms: _201  and  _202
REMARK   83  A    between atoms: _206  and  _207
REMARK   84  A    between atoms: _212  and  _214
REMARK   85  A    between atoms: _214  and  _215
REMARK   86  A    between atoms: _214  and  _217
REMARK   87  A    between atoms: _217  and  _218
REMARK   88  A    between atoms: _221  and  _223
REMARK   89  A    between atoms: _223  and  _224
REMARK   90  A    between atoms: _223  and  _226
REMARK   91  A    between atoms: _226  and  _227
REMARK   92  A    between atoms: _232  and  _234
REMARK   93  A    between atoms: _234  and  _235
REMARK   94  A    between atoms: _234  and  _237
REMARK   95  A    between atoms: _240  and  _242
REMARK   96  A    between atoms: _242  and  _243
REMARK   97  A    between atoms: _242  and  _245
REMARK   98  A    between atoms: _245  and  _246
REMARK   99  A    between atoms: _249  and  _251
REMARK  100  A    between atoms: _251  and  _252
REMARK  101  A    between atoms: _254  and  _256
REMARK  102  A    between atoms: _256  and  _257
REMARK  103  A    between atoms: _256  and  _259
REMARK  104  A    between atoms: _259  and  _260
REMARK  105  A    between atoms: _260  and  _261
REMARK  106  A    between atoms: _261  and  _262
REMARK  107  A    between atoms: _271  and  _273
REMARK  108  A    between atoms: _273  and  _274
REMARK  109  A    between atoms: _273  and  _276
REMARK  110  A    between atoms: _276  and  _277
REMARK  111  A    between atoms: _282  and  _284
REMARK  112  A    between atoms: _284  and  _285
REMARK  113  A    between atoms: _284  and  _287
REMARK  114  A    between atoms: _287  and  _288
REMARK  115  A    between atoms: _288  and  _289
REMARK  116  A    between atoms: _289  and  _290
REMARK  117  A    between atoms: _299  and  _301
REMARK  118  A    between atoms: _301  and  _302
REMARK  119  A    between atoms: _301  and  _304
REMARK  120  A    between atoms: _304  and  _305
REMARK  121  A    between atoms: _308  and  _310
REMARK  122  A    between atoms: _310  and  _311
REMARK  123  A    between atoms: _310  and  _313
REMARK  124  A    between atoms: _313  and  _314
REMARK  125  A    between atoms: _317  and  _319
REMARK  126  A    between atoms: _319  and  _320
REMARK  127  A    between atoms: _319  and  _322
REMARK  128  A    between atoms: _322  and  _323
REMARK  129  A    between atoms: _326  and  _328
REMARK  130  A    between atoms: _328  and  _329
REMARK  131  A    between atoms: _328  and  _331
REMARK  132  A    between atoms: _331  and  _332
REMARK  133  A    between atoms: _335  and  _337
REMARK  134  A    between atoms: _337  and  _338
REMARK  135  A    between atoms: _340  and  _342
REMARK  136  A    between atoms: _342  and  _343
REMARK  137  A    between atoms: _346  and  _348
REMARK  138  A    between atoms: _348  and  _349
REMARK  139  A    between atoms: _348  and  _351
REMARK  140  A    between atoms: _351  and  _352
REMARK  141  A    between atoms: _355  and  _357
REMARK  142  A    between atoms: _357  and  _358
REMARK  143  A    between atoms: _357  and  _360
REMARK  144  A    between atoms: _360  and  _361
REMARK  145  A    between atoms: _364  and  _366
REMARK  146  A    between atoms: _366  and  _367
REMARK  147  A    between atoms: _366  and  _369
REMARK  148  A    between atoms: _369  and  _370
REMARK  149  A    between atoms: _373  and  _375
REMARK  150  A    between atoms: _375  and  _376
REMARK  151  A    between atoms: _375  and  _378
REMARK  152  A    between atoms: _381  and  _383
REMARK  153  A    between atoms: _383  and  _384
REMARK  154  A    between atoms: _383  and  _386
REMARK  155  A    between atoms: _386  and  _387
REMARK  156  A    between atoms: _387  and  _388
REMARK  157  A    between atoms: _388  and  _389
REMARK  158  A    between atoms: _398  and  _400
REMARK  159  A    between atoms: _400  and  _401
REMARK  160  A    between atoms: _400  and  _403
REMARK  161  A    between atoms: _403  and  _404
REMARK  162  A    between atoms: _407  and  _409
REMARK  163  A    between atoms: _409  and  _410
REMARK  164  A    between atoms: _409  and  _412
REMARK  165  A    between atoms: _412  and  _413
REMARK  166  A    between atoms: _416  and  _418
REMARK  167  A    between atoms: _418  and  _419
REMARK  168  A    between atoms: _421  and  _423
REMARK  169  A    between atoms: _423  and  _424
REMARK  170  A    between atoms: _426  and  _428
REMARK  171  A    between atoms: _428  and  _429
REMARK  172  A    between atoms: _428  and  _431
REMARK  173  A    between atoms: _431  and  _432
REMARK  174  A    between atoms: _435  and  _437
REMARK  175  A    between atoms: _437  and  _438
REMARK  176  A    between atoms: _440  and  _442
REMARK  177  A    between atoms: _442  and  _443
REMARK  178  A    between atoms: _445  and  _447
REMARK  179  A    between atoms: _447  and  _448
REMARK  180  A    between atoms: _447  and  _450
REMARK  181  A    between atoms: _453  and  _455
REMARK  182  A    between atoms: _455  and  _456
REMARK  183  A    between atoms: _455  and  _458
REMARK  184  A    between atoms: _458  and  _459
REMARK  185  A    between atoms: _462  and  _464
REMARK  186  A    between atoms: _464  and  _465
REMARK  187  A    between atoms: _464  and  _467
REMARK  188  A    between atoms: _467  and  _468
REMARK  189  A    between atoms: _472  and  _473
REMARK  190  A    between atoms: _478  and  _480
REMARK  191  A    between atoms: _480  and  _481
REMARK  192  A    between atoms: _480  and  _483
REMARK  193  A    between atoms: _483  and  _484
REMARK  194  A    between atoms: _487  and  _489
REMARK  195  A    between atoms: _489  and  _490
REMARK  196  A    between atoms: _489  and  _492
REMARK  197  A    between atoms: _492  and  _493
REMARK  198  A    between atoms: _498  and  _500
REMARK  199  A    between atoms: _500  and  _501
REMARK  200  A    between atoms: _500  and  _503
REMARK  201  A    between atoms: _506  and  _508
REMARK  202  A    between atoms: _508  and  _509
REMARK  203  A    between atoms: _508  and  _511
REMARK  204  A    between atoms: _511  and  _512
REMARK  205  A    between atoms: _515  and  _517
REMARK  206  A    between atoms: _517  and  _518
REMARK  207  A    between atoms: _520  and  _522
REMARK  208  A    between atoms: _522  and  _523
REMARK  209  A    between atoms: _522  and  _525
REMARK  210  A    between atoms: _525  and  _526
REMARK  211  A    between atoms: _526  and  _527
REMARK  212  A    between atoms: _527  and  _528
REMARK  213  A    between atoms: _537  and  _539
REMARK  214  A    between atoms: _539  and  _540
REMARK  215  A    between atoms: _539  and  _542
REMARK  216  A    between atoms: _542  and  _543
REMARK                            x       y       z     vdW  Elec       q    Type
REMARK                         _______ _______ _______ _____ _____    ______ ____
ROOT
ATOM      1  O   HOH     1      -9.760  23.934  15.874  0.00  0.00    +0.000 OA
ENDROOT
TORSDOF 0
REMARK  Name = ../refined-set-2016/3ggu/3ggu_pocket.pdb
REMARK  216 active torsions:
REMARK  status: ('A' for Active; 'I' for Inactive)
REMARK    1  A    between atoms: _1  and  _3
REMARK    2  A    between atoms: _3  and  _4
REMARK    3  A    between atoms: _3  and  _6
REMARK    4  A    between atoms: _6  and  _7
REMARK    5  A    between atoms: _7  and  _8
REMARK    6  A    between atoms: _8  and  _9
REMARK    7  A    between atoms: _18  and  _20
REMARK    8  A    between atoms: _20  and  _21
REMARK    9  A    between atoms: _20  and  _23
REMARK   10  A    between atoms: _23  and  _24
REMARK   11  A    between atoms: _27  and  _29
REMARK   12  A    between atoms: _29  and  _30
REMARK   13  A    between atoms: _29  and  _32
REMARK   14  A    between atoms: _32  and  _33
REMARK   15  A    between atoms: _36  and  _38
REMARK   16  A    between atoms: _38  and  _39
REMARK   17  A    between atoms: _38  and  _41
REMARK   18  A    between atoms: _41  and  _42
REMARK   19  A    between atoms: _45  and  _47
REMARK   20  A    between atoms: _47  and  _48
REMARK   21  A    between atoms: _47  and  _50
REMARK   22  A    between atoms: _50  and  _51
REMARK   23  A    between atoms: _54  and  _56
REMARK   24  A    between atoms: _56  and  _57
REMARK   25  A    between atoms: _59  and  _61
REMARK   26  A    between atoms: _61  and  _62
REMARK   27  A    between atoms: _65  and  _67
REMARK   28  A    between atoms: _67  and  _68
REMARK   29  A    between atoms: _67  and  _70
REMARK   30  A    between atoms: _70  and  _71
REMARK   31  A    between atoms: _74  and  _76
REMARK   32  A    between atoms: _76  and  _77
REMARK   33  A    between atoms: _76  and  _79
REMARK   34  A    between atoms: _79  and  _80
REMARK   35  A    between atoms: _83  and  _85
REMARK   36  A    between atoms: _85  and  _86
REMARK   37  A    between atoms: _85  and  _88
REMARK   38  A    between atoms: _88  and  _89
REMARK   39  A    between atoms: _92  and  _94
REMARK   40  A    between atoms: _94  and  _95
REMARK   41  A    between atoms: _94  and  _97
REMARK   42  A    between atoms: _100  and  _102
REMARK   43  A    between atoms: _102  and  _103
REMARK   44  A    between atoms: _102  and  _105
REMARK   45  A    between atoms: _105  and  _106
REMARK   46  A    between atoms: _106  and  _107
REMARK   47  A    between atoms: _107  and  _108
REMARK   48  A    between atoms: _117  and  _119
REMARK   49  A    between atoms: _119  and  _120
REMARK   50  A    between atoms: _119  and  _122
REMARK   51  A    between atoms: _122  and  _123
REMARK   52  A    between atoms: _126  and  _128
REMARK   53  A    between atoms: _128  and  _129
REMARK   54  A    between atoms: _128  and  _131
REMARK   55  A    between atoms: _131  and  _132
REMARK   56  A    between atoms: _135  and  _137
REMARK   57  A    between atoms: _137  and  _138
REMARK   58  A    between atoms: _140  and  _142
REMARK   59  A    between atoms: _142  and  _143
REMARK   60  A    between atoms: _145  and  _147
REMARK   61  A    between atoms: _147  and  _148
REMARK   62  A    between atoms: _147  and  _150
REMARK   63  A    between atoms: _150  and  _151
REMARK   64  A    between atoms: _154  and  _156
REMARK   65  A    between atoms: _156  and  _157
REMARK   66  A    between atoms: _159  and  _161
REMARK   67  A    between atoms: _161  and  _162
REMARK   68  A    between atoms: _164  and  _166
REMARK   69  A    between atoms: _166  and  _167
REMARK   70  A    between atoms: _166  and  _169
REMARK   71  A    between atoms: _172  and  _174
REMARK   72  A    between atoms: _174  and  _175
REMARK   73  A    between atoms: _174  and  _177
REMARK   74  A    between atoms: _180  and  _182
REMARK   75  A    between atoms: _182  and  _183
REMARK   76  A    between atoms: _182  and  _185
REMARK   77  A    between atoms: _185  and  _186
REMARK   78  A    between atoms: _190  and  _191
REMARK   79  A    between atoms: _196  and  _198
REMARK   80  A    between atoms: _198  and  _199
REMARK   81  A    between atoms: _198  and  _201
REMARK   82  A    between atoms: _201  and  _202
REMARK   83  A    between atoms: _206  and  _207
REMARK   84  A    between atoms: _212  and  _214
REMARK   85  A    between atoms: _214  and  _215
REMARK   86  A    between atoms: _214  and  _217
REMARK   87  A    between atoms: _217  and  _218
REMARK   88  A    between atoms: _221  and  _223
REMARK   89  A    between atoms: _223  and  _224
REMARK   90  A    between atoms: _223  and  _226
REMARK   91  A    between atoms: _226  and  _227
REMARK   92  A    between atoms: _232  and  _234
REMARK   93  A    between atoms: _234  and  _235
REMARK   94  A    between atoms: _234  and  _237
REMARK   95  A    between atoms: _240  and  _242
REMARK   96  A    between atoms: _242  and  _243
REMARK   97  A    between atoms: _242  and  _245
REMARK   98  A    between atoms: _245  and  _246
REMARK   99  A    between atoms: _249  and  _251
REMARK  100  A    between atoms: _251  and  _252
REMARK  101  A    between atoms: _254  and  _256
REMARK  102  A    between atoms: _256  and  _257
REMARK  103  A    between atoms: _256  and  _259
REMARK  104  A    between atoms: _259  and  _260
REMARK  105  A    between atoms: _260  and  _261
REMARK  106  A    between atoms: _261  and  _262
REMARK  107  A    between atoms: _271  and  _273
REMARK  108  A    between atoms: _273  and  _274
REMARK  109  A    between atoms: _273  and  _276
REMARK  110  A    between atoms: _276  and  _277
REMARK  111  A    between atoms: _282  and  _284
REMARK  112  A    between atoms: _284  and  _285
REMARK  113  A    between atoms: _284  and  _287
REMARK  114  A    between atoms: _287  and  _288
REMARK  115  A    between atoms: _288  and  _289
REMARK  116  A    between atoms: _289  and  _290
REMARK  117  A    between atoms: _299  and  _301
REMARK  118  A    between atoms: _301  and  _302
REMARK  119  A    between atoms: _301  and  _304
REMARK  120  A    between atoms: _304  and  _305
REMARK  121  A    between atoms: _308  and  _310
REMARK  122  A    between atoms: _310  and  _311
REMARK  123  A    between atoms: _310  and  _313
REMARK  124  A    between atoms: _313  and  _314
REMARK  125  A    between atoms: _317  and  _319
REMARK  126  A    between atoms: _319  and  _320
REMARK  127  A    between atoms: _319  and  _322
REMARK  128  A    between atoms: _322  and  _323
REMARK  129  A    between atoms: _326  and  _328
REMARK  130  A    between atoms: _328  and  _329
REMARK  131  A    between atoms: _328  and  _331
REMARK  132  A    between atoms: _331  and  _332
REMARK  133  A    between atoms: _335  and  _337
REMARK  134  A    between atoms: _337  and  _338
REMARK  135  A    between atoms: _340  and  _342
REMARK  136  A    between atoms: _342  and  _343
REMARK  137  A    between atoms: _346  and  _348
REMARK  138  A    between atoms: _348  and  _349
REMARK  139  A    between atoms: _348  and  _351
REMARK  140  A    between atoms: _351  and  _352
REMARK  141  A    between atoms: _355  and  _357
REMARK  142  A    between atoms: _357  and  _358
REMARK  143  A    between atoms: _357  and  _360
REMARK  144  A    between atoms: _360  and  _361
REMARK  145  A    between atoms: _364  and  _366
REMARK  146  A    between atoms: _366  and  _367
REMARK  147  A    between atoms: _366  and  _369
REMARK  148  A    between atoms: _369  and  _370
REMARK  149  A    between atoms: _373  and  _375
REMARK  150  A    between atoms: _375  and  _376
REMARK  151  A    between atoms: _375  and  _378
REMARK  152  A    between atoms: _381  and  _383
REMARK  153  A    between atoms: _383  and  _384
REMARK  154  A    between atoms: _383  and  _386
REMARK  155  A    between atoms: _386  and  _387
REMARK  156  A    between atoms: _387  and  _388
REMARK  157  A    between atoms: _388  and  _389
REMARK  158  A    between atoms: _398  and  _400
REMARK  159  A    between atoms: _400  and  _401
REMARK  160  A    between atoms: _400  and  _403
REMARK  161  A    between atoms: _403  and  _404
REMARK  162  A    between atoms: _407  and  _409
REMARK  163  A    between atoms: _409  and  _410
REMARK  164  A    between atoms: _409  and  _412
REMARK  165  A    between atoms: _412  and  _413
REMARK  166  A    between atoms: _416  and  _418
REMARK  167  A    between atoms: _418  and  _419
REMARK  168  A    between atoms: _421  and  _423
REMARK  169  A    between atoms: _423  and  _424
REMARK  170  A    between atoms: _426  and  _428
REMARK  171  A    between atoms: _428  and  _429
REMARK  172  A    between atoms: _428  and  _431
REMARK  173  A    between atoms: _431  and  _432
REMARK  174  A    between atoms: _435  and  _437
REMARK  175  A    between atoms: _437  and  _438
REMARK  176  A    between atoms: _440  and  _442
REMARK  177  A    between atoms: _442  and  _443
REMARK  178  A    between atoms: _445  and  _447
REMARK  179  A    between atoms: _447  and  _448
REMARK  180  A    between atoms: _447  and  _450
REMARK  181  A    between atoms: _453  and  _455
REMARK  182  A    between atoms: _455  and  _456
REMARK  183  A    between atoms: _455  and  _458
REMARK  184  A    between atoms: _458  and  _459
REMARK  185  A    between atoms: _462  and  _464
REMARK  186  A    between atoms: _464  and  _465
REMARK  187  A    between atoms: _464  and  _467
REMARK  188  A    between atoms: _467  and  _468
REMARK  189  A    between atoms: _472  and  _473
REMARK  190  A    between atoms: _478  and  _480
REMARK  191  A    between atoms: _480  and  _481
REMARK  192  A    between atoms: _480  and  _483
REMARK  193  A    between atoms: _483  and  _484
REMARK  194  A    between atoms: _487  and  _489
REMARK  195  A    between atoms: _489  and  _490
REMARK  196  A    between atoms: _489  and  _492
REMARK  197  A    between atoms: _492  and  _493
REMARK  198  A    between atoms: _498  and  _500
REMARK  199  A    between atoms: _500  and  _501
REMARK  200  A    between atoms: _500  and  _503
REMARK  201  A    between atoms: _506  and  _508
REMARK  202  A    between atoms: _508  and  _509
REMARK  203  A    between atoms: _508  and  _511
REMARK  204  A    between atoms: _511  and  _512
REMARK  205  A    between atoms: _515  and  _517
REMARK  206  A    between atoms: _517  and  _518
REMARK  207  A    between atoms: _520  and  _522
REMARK  208  A    between atoms: _522  and  _523
REMARK  209  A    between atoms: _522  and  _525
REMARK  210  A    between atoms: _525  and  _526
REMARK  211  A    between atoms: _526  and  _527
REMARK  212  A    between atoms: _527  and  _528
REMARK  213  A    between atoms: _537  and  _539
REMARK  214  A    between atoms: _539  and  _540
REMARK  215  A    between atoms: _539  and  _542
REMARK  216  A    between atoms: _542  and  _543
REMARK                            x       y       z     vdW  Elec       q    Type
REMARK                         _______ _______ _______ _____ _____    ______ ____
ROOT
ATOM      1  O   HOH     1      -6.445  21.833  22.441  0.00  0.00    +0.000 OA
ENDROOT
TORSDOF 0
REMARK  Name = ../refined-set-2016/3ggu/3ggu_pocket.pdb
REMARK  216 active torsions:
REMARK  status: ('A' for Active; 'I' for Inactive)
REMARK    1  A    between atoms: _1  and  _3
REMARK    2  A    between atoms: _3  and  _4
REMARK    3  A    between atoms: _3  and  _6
REMARK    4  A    between atoms: _6  and  _7
REMARK    5  A    between atoms: _7  and  _8
REMARK    6  A    between atoms: _8  and  _9
REMARK    7  A    between atoms: _18  and  _20
REMARK    8  A    between atoms: _20  and  _21
REMARK    9  A    between atoms: _20  and  _23
REMARK   10  A    between atoms: _23  and  _24
REMARK   11  A    between atoms: _27  and  _29
REMARK   12  A    between atoms: _29  and  _30
REMARK   13  A    between atoms: _29  and  _32
REMARK   14  A    between atoms: _32  and  _33
REMARK   15  A    between atoms: _36  and  _38
REMARK   16  A    between atoms: _38  and  _39
REMARK   17  A    between atoms: _38  and  _41
REMARK   18  A    between atoms: _41  and  _42
REMARK   19  A    between atoms: _45  and  _47
REMARK   20  A    between atoms: _47  and  _48
REMARK   21  A    between atoms: _47  and  _50
REMARK   22  A    between atoms: _50  and  _51
REMARK   23  A    between atoms: _54  and  _56
REMARK   24  A    between atoms: _56  and  _57
REMARK   25  A    between atoms: _59  and  _61
REMARK   26  A    between atoms: _61  and  _62
REMARK   27  A    between atoms: _65  and  _67
REMARK   28  A    between atoms: _67  and  _68
REMARK   29  A    between atoms: _67  and  _70
REMARK   30  A    between atoms: _70  and  _71
REMARK   31  A    between atoms: _74  and  _76
REMARK   32  A    between atoms: _76  and  _77
REMARK   33  A    between atoms: _76  and  _79
REMARK   34  A    between atoms: _79  and  _80
REMARK   35  A    between atoms: _83  and  _85
REMARK   36  A    between atoms: _85  and  _86
REMARK   37  A    between atoms: _85  and  _88
REMARK   38  A    between atoms: _88  and  _89
REMARK   39  A    between atoms: _92  and  _94
REMARK   40  A    between atoms: _94  and  _95
REMARK   41  A    between atoms: _94  and  _97
REMARK   42  A    between atoms: _100  and  _102
REMARK   43  A    between atoms: _102  and  _103
REMARK   44  A    between atoms: _102  and  _105
REMARK   45  A    between atoms: _105  and  _106
REMARK   46  A    between atoms: _106  and  _107
REMARK   47  A    between atoms: _107  and  _108
REMARK   48  A    between atoms: _117  and  _119
REMARK   49  A    between atoms: _119  and  _120
REMARK   50  A    between atoms: _119  and  _122
REMARK   51  A    between atoms: _122  and  _123
REMARK   52  A    between atoms: _126  and  _128
REMARK   53  A    between atoms: _128  and  _129
REMARK   54  A    between atoms: _128  and  _131
REMARK   55  A    between atoms: _131  and  _132
REMARK   56  A    between atoms: _135  and  _137
REMARK   57  A    between atoms: _137  and  _138
REMARK   58  A    between atoms: _140  and  _142
REMARK   59  A    between atoms: _142  and  _143
REMARK   60  A    between atoms: _145  and  _147
REMARK   61  A    between atoms: _147  and  _148
REMARK   62  A    between atoms: _147  and  _150
REMARK   63  A    between atoms: _150  and  _151
REMARK   64  A    between atoms: _154  and  _156
REMARK   65  A    between atoms: _156  and  _157
REMARK   66  A    between atoms: _159  and  _161
REMARK   67  A    between atoms: _161  and  _162
REMARK   68  A    between atoms: _164  and  _166
REMARK   69  A    between atoms: _166  and  _167
REMARK   70  A    between atoms: _166  and  _169
REMARK   71  A    between atoms: _172  and  _174
REMARK   72  A    between atoms: _174  and  _175
REMARK   73  A    between atoms: _174  and  _177
REMARK   74  A    between atoms: _180  and  _182
REMARK   75  A    between atoms: _182  and  _183
REMARK   76  A    between atoms: _182  and  _185
REMARK   77  A    between atoms: _185  and  _186
REMARK   78  A    between atoms: _190  and  _191
REMARK   79  A    between atoms: _196  and  _198
REMARK   80  A    between atoms: _198  and  _199
REMARK   81  A    between atoms: _198  and  _201
REMARK   82  A    between atoms: _201  and  _202
REMARK   83  A    between atoms: _206  and  _207
REMARK   84  A    between atoms: _212  and  _214
REMARK   85  A    between atoms: _214  and  _215
REMARK   86  A    between atoms: _214  and  _217
REMARK   87  A    between atoms: _217  and  _218
REMARK   88  A    between atoms: _221  and  _223
REMARK   89  A    between atoms: _223  and  _224
REMARK   90  A    between atoms: _223  and  _226
REMARK   91  A    between atoms: _226  and  _227
REMARK   92  A    between atoms: _232  and  _234
REMARK   93  A    between atoms: _234  and  _235
REMARK   94  A    between atoms: _234  and  _237
REMARK   95  A    between atoms: _240  and  _242
REMARK   96  A    between atoms: _242  and  _243
REMARK   97  A    between atoms: _242  and  _245
REMARK   98  A    between atoms: _245  and  _246
REMARK   99  A    between atoms: _249  and  _251
REMARK  100  A    between atoms: _251  and  _252
REMARK  101  A    between atoms: _254  and  _256
REMARK  102  A    between atoms: _256  and  _257
REMARK  103  A    between atoms: _256  and  _259
REMARK  104  A    between atoms: _259  and  _260
REMARK  105  A    between atoms: _260  and  _261
REMARK  106  A    between atoms: _261  and  _262
REMARK  107  A    between atoms: _271  and  _273
REMARK  108  A    between atoms: _273  and  _274
REMARK  109  A    between atoms: _273  and  _276
REMARK  110  A    between atoms: _276  and  _277
REMARK  111  A    between atoms: _282  and  _284
REMARK  112  A    between atoms: _284  and  _285
REMARK  113  A    between atoms: _284  and  _287
REMARK  114  A    between atoms: _287  and  _288
REMARK  115  A    between atoms: _288  and  _289
REMARK  116  A    between atoms: _289  and  _290
REMARK  117  A    between atoms: _299  and  _301
REMARK  118  A    between atoms: _301  and  _302
REMARK  119  A    between atoms: _301  and  _304
REMARK  120  A    between atoms: _304  and  _305
REMARK  121  A    between atoms: _308  and  _310
REMARK  122  A    between atoms: _310  and  _311
REMARK  123  A    between atoms: _310  and  _313
REMARK  124  A    between atoms: _313  and  _314
REMARK  125  A    between atoms: _317  and  _319
REMARK  126  A    between atoms: _319  and  _320
REMARK  127  A    between atoms: _319  and  _322
REMARK  128  A    between atoms: _322  and  _323
REMARK  129  A    between atoms: _326  and  _328
REMARK  130  A    between atoms: _328  and  _329
REMARK  131  A    between atoms: _328  and  _331
REMARK  132  A    between atoms: _331  and  _332
REMARK  133  A    between atoms: _335  and  _337
REMARK  134  A    between atoms: _337  and  _338
REMARK  135  A    between atoms: _340  and  _342
REMARK  136  A    between atoms: _342  and  _343
REMARK  137  A    between atoms: _346  and  _348
REMARK  138  A    between atoms: _348  and  _349
REMARK  139  A    between atoms: _348  and  _351
REMARK  140  A    between atoms: _351  and  _352
REMARK  141  A    between atoms: _355  and  _357
REMARK  142  A    between atoms: _357  and  _358
REMARK  143  A    between atoms: _357  and  _360
REMARK  144  A    between atoms: _360  and  _361
REMARK  145  A    between atoms: _364  and  _366
REMARK  146  A    between atoms: _366  and  _367
REMARK  147  A    between atoms: _366  and  _369
REMARK  148  A    between atoms: _369  and  _370
REMARK  149  A    between atoms: _373  and  _375
REMARK  150  A    between atoms: _375  and  _376
REMARK  151  A    between atoms: _375  and  _378
REMARK  152  A    between atoms: _381  and  _383
REMARK  153  A    between atoms: _383  and  _384
REMARK  154  A    between atoms: _383  and  _386
REMARK  155  A    between atoms: _386  and  _387
REMARK  156  A    between atoms: _387  and  _388
REMARK  157  A    between atoms: _388  and  _389
REMARK  158  A    between atoms: _398  and  _400
REMARK  159  A    between atoms: _400  and  _401
REMARK  160  A    between atoms: _400  and  _403
REMARK  161  A    between atoms: _403  and  _404
REMARK  162  A    between atoms: _407  and  _409
REMARK  163  A    between atoms: _409  and  _410
REMARK  164  A    between atoms: _409  and  _412
REMARK  165  A    between atoms: _412  and  _413
REMARK  166  A    between atoms: _416  and  _418
REMARK  167  A    between atoms: _418  and  _419
REMARK  168  A    between atoms: _421  and  _423
REMARK  169  A    between atoms: _423  and  _424
REMARK  170  A    between atoms: _426  and  _428
REMARK  171  A    between atoms: _428  and  _429
REMARK  172  A    between atoms: _428  and  _431
REMARK  173  A    between atoms: _431  and  _432
REMARK  174  A    between atoms: _435  and  _437
REMARK  175  A    between atoms: _437  and  _438
REMARK  176  A    between atoms: _440  and  _442
REMARK  177  A    between atoms: _442  and  _443
REMARK  178  A    between atoms: _445  and  _447
REMARK  179  A    between atoms: _447  and  _448
REMARK  180  A    between atoms: _447  and  _450
REMARK  181  A    between atoms: _453  and  _455
REMARK  182  A    between atoms: _455  and  _456
REMARK  183  A    between atoms: _455  and  _458
REMARK  184  A    between atoms: _458  and  _459
REMARK  185  A    between atoms: _462  and  _464
REMARK  186  A    between atoms: _464  and  _465
REMARK  187  A    between atoms: _464  and  _467
REMARK  188  A    between atoms: _467  and  _468
REMARK  189  A    between atoms: _472  and  _473
REMARK  190  A    between atoms: _478  and  _480
REMARK  191  A    between atoms: _480  and  _481
REMARK  192  A    between atoms: _480  and  _483
REMARK  193  A    between atoms: _483  and  _484
REMARK  194  A    between atoms: _487  and  _489
REMARK  195  A    between atoms: _489  and  _490
REMARK  196  A    between atoms: _489  and  _492
REMARK  197  A    between atoms: _492  and  _493
REMARK  198  A    between atoms: _498  and  _500
REMARK  199  A    between atoms: _500  and  _501
REMARK  200  A    between atoms: _500  and  _503
REMARK  201  A    between atoms: _506  and  _508
REMARK  202  A    between atoms: _508  and  _509
REMARK  203  A    between atoms: _508  and  _511
REMARK  204  A    between atoms: _511  and  _512
REMARK  205  A    between atoms: _515  and  _517
REMARK  206  A    between atoms: _517  and  _518
REMARK  207  A    between atoms: _520  and  _522
REMARK  208  A    between atoms: _522  and  _523
REMARK  209  A    between atoms: _522  and  _525
REMARK  210  A    between atoms: _525  and  _526
REMARK  211  A    between atoms: _526  and  _527
REMARK  212  A    between atoms: _527  and  _528
REMARK  213  A    between atoms: _537  and  _539
REMARK  214  A    between atoms: _539  and  _540
REMARK  215  A    between atoms: _539  and  _542
REMARK  216  A    between atoms: _542  and  _543
REMARK                            x       y       z     vdW  Elec       q    Type
REMARK                         _______ _______ _______ _____ _____    ______ ____
ROOT
ATOM      1  O   HOH     1     -15.657  11.801  30.752  0.00  0.00    +0.000 OA
ENDROOT
TORSDOF 0
REMARK  Name = ../refined-set-2016/3ggu/3ggu_pocket.pdb
REMARK  216 active torsions:
REMARK  status: ('A' for Active; 'I' for Inactive)
REMARK    1  A    between atoms: _1  and  _3
REMARK    2  A    between atoms: _3  and  _4
REMARK    3  A    between atoms: _3  and  _6
REMARK    4  A    between atoms: _6  and  _7
REMARK    5  A    between atoms: _7  and  _8
REMARK    6  A    between atoms: _8  and  _9
REMARK    7  A    between atoms: _18  and  _20
REMARK    8  A    between atoms: _20  and  _21
REMARK    9  A    between atoms: _20  and  _23
REMARK   10  A    between atoms: _23  and  _24
REMARK   11  A    between atoms: _27  and  _29
REMARK   12  A    between atoms: _29  and  _30
REMARK   13  A    between atoms: _29  and  _32
REMARK   14  A    between atoms: _32  and  _33
REMARK   15  A    between atoms: _36  and  _38
REMARK   16  A    between atoms: _38  and  _39
REMARK   17  A    between atoms: _38  and  _41
REMARK   18  A    between atoms: _41  and  _42
REMARK   19  A    between atoms: _45  and  _47
REMARK   20  A    between atoms: _47  and  _48
REMARK   21  A    between atoms: _47  and  _50
REMARK   22  A    between atoms: _50  and  _51
REMARK   23  A    between atoms: _54  and  _56
REMARK   24  A    between atoms: _56  and  _57
REMARK   25  A    between atoms: _59  and  _61
REMARK   26  A    between atoms: _61  and  _62
REMARK   27  A    between atoms: _65  and  _67
REMARK   28  A    between atoms: _67  and  _68
REMARK   29  A    between atoms: _67  and  _70
REMARK   30  A    between atoms: _70  and  _71
REMARK   31  A    between atoms: _74  and  _76
REMARK   32  A    between atoms: _76  and  _77
REMARK   33  A    between atoms: _76  and  _79
REMARK   34  A    between atoms: _79  and  _80
REMARK   35  A    between atoms: _83  and  _85
REMARK   36  A    between atoms: _85  and  _86
REMARK   37  A    between atoms: _85  and  _88
REMARK   38  A    between atoms: _88  and  _89
REMARK   39  A    between atoms: _92  and  _94
REMARK   40  A    between atoms: _94  and  _95
REMARK   41  A    between atoms: _94  and  _97
REMARK   42  A    between atoms: _100  and  _102
REMARK   43  A    between atoms: _102  and  _103
REMARK   44  A    between atoms: _102  and  _105
REMARK   45  A    between atoms: _105  and  _106
REMARK   46  A    between atoms: _106  and  _107
REMARK   47  A    between atoms: _107  and  _108
REMARK   48  A    between atoms: _117  and  _119
REMARK   49  A    between atoms: _119  and  _120
REMARK   50  A    between atoms: _119  and  _122
REMARK   51  A    between atoms: _122  and  _123
REMARK   52  A    between atoms: _126  and  _128
REMARK   53  A    between atoms: _128  and  _129
REMARK   54  A    between atoms: _128  and  _131
REMARK   55  A    between atoms: _131  and  _132
REMARK   56  A    between atoms: _135  and  _137
REMARK   57  A    between atoms: _137  and  _138
REMARK   58  A    between atoms: _140  and  _142
REMARK   59  A    between atoms: _142  and  _143
REMARK   60  A    between atoms: _145  and  _147
REMARK   61  A    between atoms: _147  and  _148
REMARK   62  A    between atoms: _147  and  _150
REMARK   63  A    between atoms: _150  and  _151
REMARK   64  A    between atoms: _154  and  _156
REMARK   65  A    between atoms: _156  and  _157
REMARK   66  A    between atoms: _159  and  _161
REMARK   67  A    between atoms: _161  and  _162
REMARK   68  A    between atoms: _164  and  _166
REMARK   69  A    between atoms: _166  and  _167
REMARK   70  A    between atoms: _166  and  _169
REMARK   71  A    between atoms: _172  and  _174
REMARK   72  A    between atoms: _174  and  _175
REMARK   73  A    between atoms: _174  and  _177
REMARK   74  A    between atoms: _180  and  _182
REMARK   75  A    between atoms: _182  and  _183
REMARK   76  A    between atoms: _182  and  _185
REMARK   77  A    between atoms: _185  and  _186
REMARK   78  A    between atoms: _190  and  _191
REMARK   79  A    between atoms: _196  and  _198
REMARK   80  A    between atoms: _198  and  _199
REMARK   81  A    between atoms: _198  and  _201
REMARK   82  A    between atoms: _201  and  _202
REMARK   83  A    between atoms: _206  and  _207
REMARK   84  A    between atoms: _212  and  _214
REMARK   85  A    between atoms: _214  and  _215
REMARK   86  A    between atoms: _214  and  _217
REMARK   87  A    between atoms: _217  and  _218
REMARK   88  A    between atoms: _221  and  _223
REMARK   89  A    between atoms: _223  and  _224
REMARK   90  A    between atoms: _223  and  _226
REMARK   91  A    between atoms: _226  and  _227
REMARK   92  A    between atoms: _232  and  _234
REMARK   93  A    between atoms: _234  and  _235
REMARK   94  A    between atoms: _234  and  _237
REMARK   95  A    between atoms: _240  and  _242
REMARK   96  A    between atoms: _242  and  _243
REMARK   97  A    between atoms: _242  and  _245
REMARK   98  A    between atoms: _245  and  _246
REMARK   99  A    between atoms: _249  and  _251
REMARK  100  A    between atoms: _251  and  _252
REMARK  101  A    between atoms: _254  and  _256
REMARK  102  A    between atoms: _256  and  _257
REMARK  103  A    between atoms: _256  and  _259
REMARK  104  A    between atoms: _259  and  _260
REMARK  105  A    between atoms: _260  and  _261
REMARK  106  A    between atoms: _261  and  _262
REMARK  107  A    between atoms: _271  and  _273
REMARK  108  A    between atoms: _273  and  _274
REMARK  109  A    between atoms: _273  and  _276
REMARK  110  A    between atoms: _276  and  _277
REMARK  111  A    between atoms: _282  and  _284
REMARK  112  A    between atoms: _284  and  _285
REMARK  113  A    between atoms: _284  and  _287
REMARK  114  A    between atoms: _287  and  _288
REMARK  115  A    between atoms: _288  and  _289
REMARK  116  A    between atoms: _289  and  _290
REMARK  117  A    between atoms: _299  and  _301
REMARK  118  A    between atoms: _301  and  _302
REMARK  119  A    between atoms: _301  and  _304
REMARK  120  A    between atoms: _304  and  _305
REMARK  121  A    between atoms: _308  and  _310
REMARK  122  A    between atoms: _310  and  _311
REMARK  123  A    between atoms: _310  and  _313
REMARK  124  A    between atoms: _313  and  _314
REMARK  125  A    between atoms: _317  and  _319
REMARK  126  A    between atoms: _319  and  _320
REMARK  127  A    between atoms: _319  and  _322
REMARK  128  A    between atoms: _322  and  _323
REMARK  129  A    between atoms: _326  and  _328
REMARK  130  A    between atoms: _328  and  _329
REMARK  131  A    between atoms: _328  and  _331
REMARK  132  A    between atoms: _331  and  _332
REMARK  133  A    between atoms: _335  and  _337
REMARK  134  A    between atoms: _337  and  _338
REMARK  135  A    between atoms: _340  and  _342
REMARK  136  A    between atoms: _342  and  _343
REMARK  137  A    between atoms: _346  and  _348
REMARK  138  A    between atoms: _348  and  _349
REMARK  139  A    between atoms: _348  and  _351
REMARK  140  A    between atoms: _351  and  _352
REMARK  141  A    between atoms: _355  and  _357
REMARK  142  A    between atoms: _357  and  _358
REMARK  143  A    between atoms: _357  and  _360
REMARK  144  A    between atoms: _360  and  _361
REMARK  145  A    between atoms: _364  and  _366
REMARK  146  A    between atoms: _366  and  _367
REMARK  147  A    between atoms: _366  and  _369
REMARK  148  A    between atoms: _369  and  _370
REMARK  149  A    between atoms: _373  and  _375
REMARK  150  A    between atoms: _375  and  _376
REMARK  151  A    between atoms: _375  and  _378
REMARK  152  A    between atoms: _381  and  _383
REMARK  153  A    between atoms: _383  and  _384
REMARK  154  A    between atoms: _383  and  _386
REMARK  155  A    between atoms: _386  and  _387
REMARK  156  A    between atoms: _387  and  _388
REMARK  157  A    between atoms: _388  and  _389
REMARK  158  A    between atoms: _398  and  _400
REMARK  159  A    between atoms: _400  and  _401
REMARK  160  A    between atoms: _400  and  _403
REMARK  161  A    between atoms: _403  and  _404
REMARK  162  A    between atoms: _407  and  _409
REMARK  163  A    between atoms: _409  and  _410
REMARK  164  A    between atoms: _409  and  _412
REMARK  165  A    between atoms: _412  and  _413
REMARK  166  A    between atoms: _416  and  _418
REMARK  167  A    between atoms: _418  and  _419
REMARK  168  A    between atoms: _421  and  _423
REMARK  169  A    between atoms: _423  and  _424
REMARK  170  A    between atoms: _426  and  _428
REMARK  171  A    between atoms: _428  and  _429
REMARK  172  A    between atoms: _428  and  _431
REMARK  173  A    between atoms: _431  and  _432
REMARK  174  A    between atoms: _435  and  _437
REMARK  175  A    between atoms: _437  and  _438
REMARK  176  A    between atoms: _440  and  _442
REMARK  177  A    between atoms: _442  and  _443
REMARK  178  A    between atoms: _445  and  _447
REMARK  179  A    between atoms: _447  and  _448
REMARK  180  A    between atoms: _447  and  _450
REMARK  181  A    between atoms: _453  and  _455
REMARK  182  A    between atoms: _455  and  _456
REMARK  183  A    between atoms: _455  and  _458
REMARK  184  A    between atoms: _458  and  _459
REMARK  185  A    between atoms: _462  and  _464
REMARK  186  A    between atoms: _464  and  _465
REMARK  187  A    between atoms: _464  and  _467
REMARK  188  A    between atoms: _467  and  _468
REMARK  189  A    between atoms: _472  and  _473
REMARK  190  A    between atoms: _478  and  _480
REMARK  191  A    between atoms: _480  and  _481
REMARK  192  A    between atoms: _480  and  _483
REMARK  193  A    between atoms: _483  and  _484
REMARK  194  A    between atoms: _487  and  _489
REMARK  195  A    between atoms: _489  and  _490
REMARK  196  A    between atoms: _489  and  _492
REMARK  197  A    between atoms: _492  and  _493
REMARK  198  A    between atoms: _498  and  _500
REMARK  199  A    between atoms: _500  and  _501
REMARK  200  A    between atoms: _500  and  _503
REMARK  201  A    between atoms: _506  and  _508
REMARK  202  A    between atoms: _508  and  _509
REMARK  203  A    between atoms: _508  and  _511
REMARK  204  A    between atoms: _511  and  _512
REMARK  205  A    between atoms: _515  and  _517
REMARK  206  A    between atoms: _517  and  _518
REMARK  207  A    between atoms: _520  and  _522
REMARK  208  A    between atoms: _522  and  _523
REMARK  209  A    between atoms: _522  and  _525
REMARK  210  A    between atoms: _525  and  _526
REMARK  211  A    between atoms: _526  and  _527
REMARK  212  A    between atoms: _527  and  _528
REMARK  213  A    between atoms: _537  and  _539
REMARK  214  A    between atoms: _539  and  _540
REMARK  215  A    between atoms: _539  and  _542
REMARK  216  A    between atoms: _542  and  _543
REMARK                            x       y       z     vdW  Elec       q    Type
REMARK                         _______ _______ _______ _____ _____    ______ ____
ROOT
ATOM      1  O   HOH     1     -15.674  16.542  31.238  0.00  0.00    +0.000 OA
ENDROOT
TORSDOF 0
REMARK  Name = ../refined-set-2016/3ggu/3ggu_pocket.pdb
REMARK  216 active torsions:
REMARK  status: ('A' for Active; 'I' for Inactive)
REMARK    1  A    between atoms: _1  and  _3
REMARK    2  A    between atoms: _3  and  _4
REMARK    3  A    between atoms: _3  and  _6
REMARK    4  A    between atoms: _6  and  _7
REMARK    5  A    between atoms: _7  and  _8
REMARK    6  A    between atoms: _8  and  _9
REMARK    7  A    between atoms: _18  and  _20
REMARK    8  A    between atoms: _20  and  _21
REMARK    9  A    between atoms: _20  and  _23
REMARK   10  A    between atoms: _23  and  _24
REMARK   11  A    between atoms: _27  and  _29
REMARK   12  A    between atoms: _29  and  _30
REMARK   13  A    between atoms: _29  and  _32
REMARK   14  A    between atoms: _32  and  _33
REMARK   15  A    between atoms: _36  and  _38
REMARK   16  A    between atoms: _38  and  _39
REMARK   17  A    between atoms: _38  and  _41
REMARK   18  A    between atoms: _41  and  _42
REMARK   19  A    between atoms: _45  and  _47
REMARK   20  A    between atoms: _47  and  _48
REMARK   21  A    between atoms: _47  and  _50
REMARK   22  A    between atoms: _50  and  _51
REMARK   23  A    between atoms: _54  and  _56
REMARK   24  A    between atoms: _56  and  _57
REMARK   25  A    between atoms: _59  and  _61
REMARK   26  A    between atoms: _61  and  _62
REMARK   27  A    between atoms: _65  and  _67
REMARK   28  A    between atoms: _67  and  _68
REMARK   29  A    between atoms: _67  and  _70
REMARK   30  A    between atoms: _70  and  _71
REMARK   31  A    between atoms: _74  and  _76
REMARK   32  A    between atoms: _76  and  _77
REMARK   33  A    between atoms: _76  and  _79
REMARK   34  A    between atoms: _79  and  _80
REMARK   35  A    between atoms: _83  and  _85
REMARK   36  A    between atoms: _85  and  _86
REMARK   37  A    between atoms: _85  and  _88
REMARK   38  A    between atoms: _88  and  _89
REMARK   39  A    between atoms: _92  and  _94
REMARK   40  A    between atoms: _94  and  _95
REMARK   41  A    between atoms: _94  and  _97
REMARK   42  A    between atoms: _100  and  _102
REMARK   43  A    between atoms: _102  and  _103
REMARK   44  A    between atoms: _102  and  _105
REMARK   45  A    between atoms: _105  and  _106
REMARK   46  A    between atoms: _106  and  _107
REMARK   47  A    between atoms: _107  and  _108
REMARK   48  A    between atoms: _117  and  _119
REMARK   49  A    between atoms: _119  and  _120
REMARK   50  A    between atoms: _119  and  _122
REMARK   51  A    between atoms: _122  and  _123
REMARK   52  A    between atoms: _126  and  _128
REMARK   53  A    between atoms: _128  and  _129
REMARK   54  A    between atoms: _128  and  _131
REMARK   55  A    between atoms: _131  and  _132
REMARK   56  A    between atoms: _135  and  _137
REMARK   57  A    between atoms: _137  and  _138
REMARK   58  A    between atoms: _140  and  _142
REMARK   59  A    between atoms: _142  and  _143
REMARK   60  A    between atoms: _145  and  _147
REMARK   61  A    between atoms: _147  and  _148
REMARK   62  A    between atoms: _147  and  _150
REMARK   63  A    between atoms: _150  and  _151
REMARK   64  A    between atoms: _154  and  _156
REMARK   65  A    between atoms: _156  and  _157
REMARK   66  A    between atoms: _159  and  _161
REMARK   67  A    between atoms: _161  and  _162
REMARK   68  A    between atoms: _164  and  _166
REMARK   69  A    between atoms: _166  and  _167
REMARK   70  A    between atoms: _166  and  _169
REMARK   71  A    between atoms: _172  and  _174
REMARK   72  A    between atoms: _174  and  _175
REMARK   73  A    between atoms: _174  and  _177
REMARK   74  A    between atoms: _180  and  _182
REMARK   75  A    between atoms: _182  and  _183
REMARK   76  A    between atoms: _182  and  _185
REMARK   77  A    between atoms: _185  and  _186
REMARK   78  A    between atoms: _190  and  _191
REMARK   79  A    between atoms: _196  and  _198
REMARK   80  A    between atoms: _198  and  _199
REMARK   81  A    between atoms: _198  and  _201
REMARK   82  A    between atoms: _201  and  _202
REMARK   83  A    between atoms: _206  and  _207
REMARK   84  A    between atoms: _212  and  _214
REMARK   85  A    between atoms: _214  and  _215
REMARK   86  A    between atoms: _214  and  _217
REMARK   87  A    between atoms: _217  and  _218
REMARK   88  A    between atoms: _221  and  _223
REMARK   89  A    between atoms: _223  and  _224
REMARK   90  A    between atoms: _223  and  _226
REMARK   91  A    between atoms: _226  and  _227
REMARK   92  A    between atoms: _232  and  _234
REMARK   93  A    between atoms: _234  and  _235
REMARK   94  A    between atoms: _234  and  _237
REMARK   95  A    between atoms: _240  and  _242
REMARK   96  A    between atoms: _242  and  _243
REMARK   97  A    between atoms: _242  and  _245
REMARK   98  A    between atoms: _245  and  _246
REMARK   99  A    between atoms: _249  and  _251
REMARK  100  A    between atoms: _251  and  _252
REMARK  101  A    between atoms: _254  and  _256
REMARK  102  A    between atoms: _256  and  _257
REMARK  103  A    between atoms: _256  and  _259
REMARK  104  A    between atoms: _259  and  _260
REMARK  105  A    between atoms: _260  and  _261
REMARK  106  A    between atoms: _261  and  _262
REMARK  107  A    between atoms: _271  and  _273
REMARK  108  A    between atoms: _273  and  _274
REMARK  109  A    between atoms: _273  and  _276
REMARK  110  A    between atoms: _276  and  _277
REMARK  111  A    between atoms: _282  and  _284
REMARK  112  A    between atoms: _284  and  _285
REMARK  113  A    between atoms: _284  and  _287
REMARK  114  A    between atoms: _287  and  _288
REMARK  115  A    between atoms: _288  and  _289
REMARK  116  A    between atoms: _289  and  _290
REMARK  117  A    between atoms: _299  and  _301
REMARK  118  A    between atoms: _301  and  _302
REMARK  119  A    between atoms: _301  and  _304
REMARK  120  A    between atoms: _304  and  _305
REMARK  121  A    between atoms: _308  and  _310
REMARK  122  A    between atoms: _310  and  _311
REMARK  123  A    between atoms: _310  and  _313
REMARK  124  A    between atoms: _313  and  _314
REMARK  125  A    between atoms: _317  and  _319
REMARK  126  A    between atoms: _319  and  _320
REMARK  127  A    between atoms: _319  and  _322
REMARK  128  A    between atoms: _322  and  _323
REMARK  129  A    between atoms: _326  and  _328
REMARK  130  A    between atoms: _328  and  _329
REMARK  131  A    between atoms: _328  and  _331
REMARK  132  A    between atoms: _331  and  _332
REMARK  133  A    between atoms: _335  and  _337
REMARK  134  A    between atoms: _337  and  _338
REMARK  135  A    between atoms: _340  and  _342
REMARK  136  A    between atoms: _342  and  _343
REMARK  137  A    between atoms: _346  and  _348
REMARK  138  A    between atoms: _348  and  _349
REMARK  139  A    between atoms: _348  and  _351
REMARK  140  A    between atoms: _351  and  _352
REMARK  141  A    between atoms: _355  and  _357
REMARK  142  A    between atoms: _357  and  _358
REMARK  143  A    between atoms: _357  and  _360
REMARK  144  A    between atoms: _360  and  _361
REMARK  145  A    between atoms: _364  and  _366
REMARK  146  A    between atoms: _366  and  _367
REMARK  147  A    between atoms: _366  and  _369
REMARK  148  A    between atoms: _369  and  _370
REMARK  149  A    between atoms: _373  and  _375
REMARK  150  A    between atoms: _375  and  _376
REMARK  151  A    between atoms: _375  and  _378
REMARK  152  A    between atoms: _381  and  _383
REMARK  153  A    between atoms: _383  and  _384
REMARK  154  A    between atoms: _383  and  _386
REMARK  155  A    between atoms: _386  and  _387
REMARK  156  A    between atoms: _387  and  _388
REMARK  157  A    between atoms: _388  and  _389
REMARK  158  A    between atoms: _398  and  _400
REMARK  159  A    between atoms: _400  and  _401
REMARK  160  A    between atoms: _400  and  _403
REMARK  161  A    between atoms: _403  and  _404
REMARK  162  A    between atoms: _407  and  _409
REMARK  163  A    between atoms: _409  and  _410
REMARK  164  A    between atoms: _409  and  _412
REMARK  165  A    between atoms: _412  and  _413
REMARK  166  A    between atoms: _416  and  _418
REMARK  167  A    between atoms: _418  and  _419
REMARK  168  A    between atoms: _421  and  _423
REMARK  169  A    between atoms: _423  and  _424
REMARK  170  A    between atoms: _426  and  _428
REMARK  171  A    between atoms: _428  and  _429
REMARK  172  A    between atoms: _428  and  _431
REMARK  173  A    between atoms: _431  and  _432
REMARK  174  A    between atoms: _435  and  _437
REMARK  175  A    between atoms: _437  and  _438
REMARK  176  A    between atoms: _440  and  _442
REMARK  177  A    between atoms: _442  and  _443
REMARK  178  A    between atoms: _445  and  _447
REMARK  179  A    between atoms: _447  and  _448
REMARK  180  A    between atoms: _447  and  _450
REMARK  181  A    between atoms: _453  and  _455
REMARK  182  A    between atoms: _455  and  _456
REMARK  183  A    between atoms: _455  and  _458
REMARK  184  A    between atoms: _458  and  _459
REMARK  185  A    between atoms: _462  and  _464
REMARK  186  A    between atoms: _464  and  _465
REMARK  187  A    between atoms: _464  and  _467
REMARK  188  A    between atoms: _467  and  _468
REMARK  189  A    between atoms: _472  and  _473
REMARK  190  A    between atoms: _478  and  _480
REMARK  191  A    between atoms: _480  and  _481
REMARK  192  A    between atoms: _480  and  _483
REMARK  193  A    between atoms: _483  and  _484
REMARK  194  A    between atoms: _487  and  _489
REMARK  195  A    between atoms: _489  and  _490
REMARK  196  A    between atoms: _489  and  _492
REMARK  197  A    between atoms: _492  and  _493
REMARK  198  A    between atoms: _498  and  _500
REMARK  199  A    between atoms: _500  and  _501
REMARK  200  A    between atoms: _500  and  _503
REMARK  201  A    between atoms: _506  and  _508
REMARK  202  A    between atoms: _508  and  _509
REMARK  203  A    between atoms: _508  and  _511
REMARK  204  A    between atoms: _511  and  _512
REMARK  205  A    between atoms: _515  and  _517
REMARK  206  A    between atoms: _517  and  _518
REMARK  207  A    between atoms: _520  and  _522
REMARK  208  A    between atoms: _522  and  _523
REMARK  209  A    between atoms: _522  and  _525
REMARK  210  A    between atoms: _525  and  _526
REMARK  211  A    between atoms: _526  and  _527
REMARK  212  A    between atoms: _527  and  _528
REMARK  213  A    between atoms: _537  and  _539
REMARK  214  A    between atoms: _539  and  _540
REMARK  215  A    between atoms: _539  and  _542
REMARK  216  A    between atoms: _542  and  _543
REMARK                            x       y       z     vdW  Elec       q    Type
REMARK                         _______ _______ _______ _____ _____    ______ ____
ROOT
ATOM      1  O   HOH     1     -13.010  17.411  14.000  0.00  0.00    +0.000 OA
ENDROOT
TORSDOF 0
REMARK  Name = ../refined-set-2016/3ggu/3ggu_pocket.pdb
REMARK  216 active torsions:
REMARK  status: ('A' for Active; 'I' for Inactive)
REMARK    1  A    between atoms: _1  and  _3
REMARK    2  A    between atoms: _3  and  _4
REMARK    3  A    between atoms: _3  and  _6
REMARK    4  A    between atoms: _6  and  _7
REMARK    5  A    between atoms: _7  and  _8
REMARK    6  A    between atoms: _8  and  _9
REMARK    7  A    between atoms: _18  and  _20
REMARK    8  A    between atoms: _20  and  _21
REMARK    9  A    between atoms: _20  and  _23
REMARK   10  A    between atoms: _23  and  _24
REMARK   11  A    between atoms: _27  and  _29
REMARK   12  A    between atoms: _29  and  _30
REMARK   13  A    between atoms: _29  and  _32
REMARK   14  A    between atoms: _32  and  _33
REMARK   15  A    between atoms: _36  and  _38
REMARK   16  A    between atoms: _38  and  _39
REMARK   17  A    between atoms: _38  and  _41
REMARK   18  A    between atoms: _41  and  _42
REMARK   19  A    between atoms: _45  and  _47
REMARK   20  A    between atoms: _47  and  _48
REMARK   21  A    between atoms: _47  and  _50
REMARK   22  A    between atoms: _50  and  _51
REMARK   23  A    between atoms: _54  and  _56
REMARK   24  A    between atoms: _56  and  _57
REMARK   25  A    between atoms: _59  and  _61
REMARK   26  A    between atoms: _61  and  _62
REMARK   27  A    between atoms: _65  and  _67
REMARK   28  A    between atoms: _67  and  _68
REMARK   29  A    between atoms: _67  and  _70
REMARK   30  A    between atoms: _70  and  _71
REMARK   31  A    between atoms: _74  and  _76
REMARK   32  A    between atoms: _76  and  _77
REMARK   33  A    between atoms: _76  and  _79
REMARK   34  A    between atoms: _79  and  _80
REMARK   35  A    between atoms: _83  and  _85
REMARK   36  A    between atoms: _85  and  _86
REMARK   37  A    between atoms: _85  and  _88
REMARK   38  A    between atoms: _88  and  _89
REMARK   39  A    between atoms: _92  and  _94
REMARK   40  A    between atoms: _94  and  _95
REMARK   41  A    between atoms: _94  and  _97
REMARK   42  A    between atoms: _100  and  _102
REMARK   43  A    between atoms: _102  and  _103
REMARK   44  A    between atoms: _102  and  _105
REMARK   45  A    between atoms: _105  and  _106
REMARK   46  A    between atoms: _106  and  _107
REMARK   47  A    between atoms: _107  and  _108
REMARK   48  A    between atoms: _117  and  _119
REMARK   49  A    between atoms: _119  and  _120
REMARK   50  A    between atoms: _119  and  _122
REMARK   51  A    between atoms: _122  and  _123
REMARK   52  A    between atoms: _126  and  _128
REMARK   53  A    between atoms: _128  and  _129
REMARK   54  A    between atoms: _128  and  _131
REMARK   55  A    between atoms: _131  and  _132
REMARK   56  A    between atoms: _135  and  _137
REMARK   57  A    between atoms: _137  and  _138
REMARK   58  A    between atoms: _140  and  _142
REMARK   59  A    between atoms: _142  and  _143
REMARK   60  A    between atoms: _145  and  _147
REMARK   61  A    between atoms: _147  and  _148
REMARK   62  A    between atoms: _147  and  _150
REMARK   63  A    between atoms: _150  and  _151
REMARK   64  A    between atoms: _154  and  _156
REMARK   65  A    between atoms: _156  and  _157
REMARK   66  A    between atoms: _159  and  _161
REMARK   67  A    between atoms: _161  and  _162
REMARK   68  A    between atoms: _164  and  _166
REMARK   69  A    between atoms: _166  and  _167
REMARK   70  A    between atoms: _166  and  _169
REMARK   71  A    between atoms: _172  and  _174
REMARK   72  A    between atoms: _174  and  _175
REMARK   73  A    between atoms: _174  and  _177
REMARK   74  A    between atoms: _180  and  _182
REMARK   75  A    between atoms: _182  and  _183
REMARK   76  A    between atoms: _182  and  _185
REMARK   77  A    between atoms: _185  and  _186
REMARK   78  A    between atoms: _190  and  _191
REMARK   79  A    between atoms: _196  and  _198
REMARK   80  A    between atoms: _198  and  _199
REMARK   81  A    between atoms: _198  and  _201
REMARK   82  A    between atoms: _201  and  _202
REMARK   83  A    between atoms: _206  and  _207
REMARK   84  A    between atoms: _212  and  _214
REMARK   85  A    between atoms: _214  and  _215
REMARK   86  A    between atoms: _214  and  _217
REMARK   87  A    between atoms: _217  and  _218
REMARK   88  A    between atoms: _221  and  _223
REMARK   89  A    between atoms: _223  and  _224
REMARK   90  A    between atoms: _223  and  _226
REMARK   91  A    between atoms: _226  and  _227
REMARK   92  A    between atoms: _232  and  _234
REMARK   93  A    between atoms: _234  and  _235
REMARK   94  A    between atoms: _234  and  _237
REMARK   95  A    between atoms: _240  and  _242
REMARK   96  A    between atoms: _242  and  _243
REMARK   97  A    between atoms: _242  and  _245
REMARK   98  A    between atoms: _245  and  _246
REMARK   99  A    between atoms: _249  and  _251
REMARK  100  A    between atoms: _251  and  _252
REMARK  101  A    between atoms: _254  and  _256
REMARK  102  A    between atoms: _256  and  _257
REMARK  103  A    between atoms: _256  and  _259
REMARK  104  A    between atoms: _259  and  _260
REMARK  105  A    between atoms: _260  and  _261
REMARK  106  A    between atoms: _261  and  _262
REMARK  107  A    between atoms: _271  and  _273
REMARK  108  A    between atoms: _273  and  _274
REMARK  109  A    between atoms: _273  and  _276
REMARK  110  A    between atoms: _276  and  _277
REMARK  111  A    between atoms: _282  and  _284
REMARK  112  A    between atoms: _284  and  _285
REMARK  113  A    between atoms: _284  and  _287
REMARK  114  A    between atoms: _287  and  _288
REMARK  115  A    between atoms: _288  and  _289
REMARK  116  A    between atoms: _289  and  _290
REMARK  117  A    between atoms: _299  and  _301
REMARK  118  A    between atoms: _301  and  _302
REMARK  119  A    between atoms: _301  and  _304
REMARK  120  A    between atoms: _304  and  _305
REMARK  121  A    between atoms: _308  and  _310
REMARK  122  A    between atoms: _310  and  _311
REMARK  123  A    between atoms: _310  and  _313
REMARK  124  A    between atoms: _313  and  _314
REMARK  125  A    between atoms: _317  and  _319
REMARK  126  A    between atoms: _319  and  _320
REMARK  127  A    between atoms: _319  and  _322
REMARK  128  A    between atoms: _322  and  _323
REMARK  129  A    between atoms: _326  and  _328
REMARK  130  A    between atoms: _328  and  _329
REMARK  131  A    between atoms: _328  and  _331
REMARK  132  A    between atoms: _331  and  _332
REMARK  133  A    between atoms: _335  and  _337
REMARK  134  A    between atoms: _337  and  _338
REMARK  135  A    between atoms: _340  and  _342
REMARK  136  A    between atoms: _342  and  _343
REMARK  137  A    between atoms: _346  and  _348
REMARK  138  A    between atoms: _348  and  _349
REMARK  139  A    between atoms: _348  and  _351
REMARK  140  A    between atoms: _351  and  _352
REMARK  141  A    between atoms: _355  and  _357
REMARK  142  A    between atoms: _357  and  _358
REMARK  143  A    between atoms: _357  and  _360
REMARK  144  A    between atoms: _360  and  _361
REMARK  145  A    between atoms: _364  and  _366
REMARK  146  A    between atoms: _366  and  _367
REMARK  147  A    between atoms: _366  and  _369
REMARK  148  A    between atoms: _369  and  _370
REMARK  149  A    between atoms: _373  and  _375
REMARK  150  A    between atoms: _375  and  _376
REMARK  151  A    between atoms: _375  and  _378
REMARK  152  A    between atoms: _381  and  _383
REMARK  153  A    between atoms: _383  and  _384
REMARK  154  A    between atoms: _383  and  _386
REMARK  155  A    between atoms: _386  and  _387
REMARK  156  A    between atoms: _387  and  _388
REMARK  157  A    between atoms: _388  and  _389
REMARK  158  A    between atoms: _398  and  _400
REMARK  159  A    between atoms: _400  and  _401
REMARK  160  A    between atoms: _400  and  _403
REMARK  161  A    between atoms: _403  and  _404
REMARK  162  A    between atoms: _407  and  _409
REMARK  163  A    between atoms: _409  and  _410
REMARK  164  A    between atoms: _409  and  _412
REMARK  165  A    between atoms: _412  and  _413
REMARK  166  A    between atoms: _416  and  _418
REMARK  167  A    between atoms: _418  and  _419
REMARK  168  A    between atoms: _421  and  _423
REMARK  169  A    between atoms: _423  and  _424
REMARK  170  A    between atoms: _426  and  _428
REMARK  171  A    between atoms: _428  and  _429
REMARK  172  A    between atoms: _428  and  _431
REMARK  173  A    between atoms: _431  and  _432
REMARK  174  A    between atoms: _435  and  _437
REMARK  175  A    between atoms: _437  and  _438
REMARK  176  A    between atoms: _440  and  _442
REMARK  177  A    between atoms: _442  and  _443
REMARK  178  A    between atoms: _445  and  _447
REMARK  179  A    between atoms: _447  and  _448
REMARK  180  A    between atoms: _447  and  _450
REMARK  181  A    between atoms: _453  and  _455
REMARK  182  A    between atoms: _455  and  _456
REMARK  183  A    between atoms: _455  and  _458
REMARK  184  A    between atoms: _458  and  _459
REMARK  185  A    between atoms: _462  and  _464
REMARK  186  A    between atoms: _464  and  _465
REMARK  187  A    between atoms: _464  and  _467
REMARK  188  A    between atoms: _467  and  _468
REMARK  189  A    between atoms: _472  and  _473
REMARK  190  A    between atoms: _478  and  _480
REMARK  191  A    between atoms: _480  and  _481
REMARK  192  A    between atoms: _480  and  _483
REMARK  193  A    between atoms: _483  and  _484
REMARK  194  A    between atoms: _487  and  _489
REMARK  195  A    between atoms: _489  and  _490
REMARK  196  A    between atoms: _489  and  _492
REMARK  197  A    between atoms: _492  and  _493
REMARK  198  A    between atoms: _498  and  _500
REMARK  199  A    between atoms: _500  and  _501
REMARK  200  A    between atoms: _500  and  _503
REMARK  201  A    between atoms: _506  and  _508
REMARK  202  A    between atoms: _508  and  _509
REMARK  203  A    between atoms: _508  and  _511
REMARK  204  A    between atoms: _511  and  _512
REMARK  205  A    between atoms: _515  and  _517
REMARK  206  A    between atoms: _517  and  _518
REMARK  207  A    between atoms: _520  and  _522
REMARK  208  A    between atoms: _522  and  _523
REMARK  209  A    between atoms: _522  and  _525
REMARK  210  A    between atoms: _525  and  _526
REMARK  211  A    between atoms: _526  and  _527
REMARK  212  A    between atoms: _527  and  _528
REMARK  213  A    between atoms: _537  and  _539
REMARK  214  A    between atoms: _539  and  _540
REMARK  215  A    between atoms: _539  and  _542
REMARK  216  A    between atoms: _542  and  _543
REMARK                            x       y       z     vdW  Elec       q    Type
REMARK                         _______ _______ _______ _____ _____    ______ ____
ROOT
ATOM      1  O   HOH     1      -3.196  14.154  14.859  0.00  0.00    +0.000 OA
ENDROOT
TORSDOF 0
REMARK  Name = ../refined-set-2016/3ggu/3ggu_pocket.pdb
REMARK  216 active torsions:
REMARK  status: ('A' for Active; 'I' for Inactive)
REMARK    1  A    between atoms: _1  and  _3
REMARK    2  A    between atoms: _3  and  _4
REMARK    3  A    between atoms: _3  and  _6
REMARK    4  A    between atoms: _6  and  _7
REMARK    5  A    between atoms: _7  and  _8
REMARK    6  A    between atoms: _8  and  _9
REMARK    7  A    between atoms: _18  and  _20
REMARK    8  A    between atoms: _20  and  _21
REMARK    9  A    between atoms: _20  and  _23
REMARK   10  A    between atoms: _23  and  _24
REMARK   11  A    between atoms: _27  and  _29
REMARK   12  A    between atoms: _29  and  _30
REMARK   13  A    between atoms: _29  and  _32
REMARK   14  A    between atoms: _32  and  _33
REMARK   15  A    between atoms: _36  and  _38
REMARK   16  A    between atoms: _38  and  _39
REMARK   17  A    between atoms: _38  and  _41
REMARK   18  A    between atoms: _41  and  _42
REMARK   19  A    between atoms: _45  and  _47
REMARK   20  A    between atoms: _47  and  _48
REMARK   21  A    between atoms: _47  and  _50
REMARK   22  A    between atoms: _50  and  _51
REMARK   23  A    between atoms: _54  and  _56
REMARK   24  A    between atoms: _56  and  _57
REMARK   25  A    between atoms: _59  and  _61
REMARK   26  A    between atoms: _61  and  _62
REMARK   27  A    between atoms: _65  and  _67
REMARK   28  A    between atoms: _67  and  _68
REMARK   29  A    between atoms: _67  and  _70
REMARK   30  A    between atoms: _70  and  _71
REMARK   31  A    between atoms: _74  and  _76
REMARK   32  A    between atoms: _76  and  _77
REMARK   33  A    between atoms: _76  and  _79
REMARK   34  A    between atoms: _79  and  _80
REMARK   35  A    between atoms: _83  and  _85
REMARK   36  A    between atoms: _85  and  _86
REMARK   37  A    between atoms: _85  and  _88
REMARK   38  A    between atoms: _88  and  _89
REMARK   39  A    between atoms: _92  and  _94
REMARK   40  A    between atoms: _94  and  _95
REMARK   41  A    between atoms: _94  and  _97
REMARK   42  A    between atoms: _100  and  _102
REMARK   43  A    between atoms: _102  and  _103
REMARK   44  A    between atoms: _102  and  _105
REMARK   45  A    between atoms: _105  and  _106
REMARK   46  A    between atoms: _106  and  _107
REMARK   47  A    between atoms: _107  and  _108
REMARK   48  A    between atoms: _117  and  _119
REMARK   49  A    between atoms: _119  and  _120
REMARK   50  A    between atoms: _119  and  _122
REMARK   51  A    between atoms: _122  and  _123
REMARK   52  A    between atoms: _126  and  _128
REMARK   53  A    between atoms: _128  and  _129
REMARK   54  A    between atoms: _128  and  _131
REMARK   55  A    between atoms: _131  and  _132
REMARK   56  A    between atoms: _135  and  _137
REMARK   57  A    between atoms: _137  and  _138
REMARK   58  A    between atoms: _140  and  _142
REMARK   59  A    between atoms: _142  and  _143
REMARK   60  A    between atoms: _145  and  _147
REMARK   61  A    between atoms: _147  and  _148
REMARK   62  A    between atoms: _147  and  _150
REMARK   63  A    between atoms: _150  and  _151
REMARK   64  A    between atoms: _154  and  _156
REMARK   65  A    between atoms: _156  and  _157
REMARK   66  A    between atoms: _159  and  _161
REMARK   67  A    between atoms: _161  and  _162
REMARK   68  A    between atoms: _164  and  _166
REMARK   69  A    between atoms: _166  and  _167
REMARK   70  A    between atoms: _166  and  _169
REMARK   71  A    between atoms: _172  and  _174
REMARK   72  A    between atoms: _174  and  _175
REMARK   73  A    between atoms: _174  and  _177
REMARK   74  A    between atoms: _180  and  _182
REMARK   75  A    between atoms: _182  and  _183
REMARK   76  A    between atoms: _182  and  _185
REMARK   77  A    between atoms: _185  and  _186
REMARK   78  A    between atoms: _190  and  _191
REMARK   79  A    between atoms: _196  and  _198
REMARK   80  A    between atoms: _198  and  _199
REMARK   81  A    between atoms: _198  and  _201
REMARK   82  A    between atoms: _201  and  _202
REMARK   83  A    between atoms: _206  and  _207
REMARK   84  A    between atoms: _212  and  _214
REMARK   85  A    between atoms: _214  and  _215
REMARK   86  A    between atoms: _214  and  _217
REMARK   87  A    between atoms: _217  and  _218
REMARK   88  A    between atoms: _221  and  _223
REMARK   89  A    between atoms: _223  and  _224
REMARK   90  A    between atoms: _223  and  _226
REMARK   91  A    between atoms: _226  and  _227
REMARK   92  A    between atoms: _232  and  _234
REMARK   93  A    between atoms: _234  and  _235
REMARK   94  A    between atoms: _234  and  _237
REMARK   95  A    between atoms: _240  and  _242
REMARK   96  A    between atoms: _242  and  _243
REMARK   97  A    between atoms: _242  and  _245
REMARK   98  A    between atoms: _245  and  _246
REMARK   99  A    between atoms: _249  and  _251
REMARK  100  A    between atoms: _251  and  _252
REMARK  101  A    between atoms: _254  and  _256
REMARK  102  A    between atoms: _256  and  _257
REMARK  103  A    between atoms: _256  and  _259
REMARK  104  A    between atoms: _259  and  _260
REMARK  105  A    between atoms: _260  and  _261
REMARK  106  A    between atoms: _261  and  _262
REMARK  107  A    between atoms: _271  and  _273
REMARK  108  A    between atoms: _273  and  _274
REMARK  109  A    between atoms: _273  and  _276
REMARK  110  A    between atoms: _276  and  _277
REMARK  111  A    between atoms: _282  and  _284
REMARK  112  A    between atoms: _284  and  _285
REMARK  113  A    between atoms: _284  and  _287
REMARK  114  A    between atoms: _287  and  _288
REMARK  115  A    between atoms: _288  and  _289
REMARK  116  A    between atoms: _289  and  _290
REMARK  117  A    between atoms: _299  and  _301
REMARK  118  A    between atoms: _301  and  _302
REMARK  119  A    between atoms: _301  and  _304
REMARK  120  A    between atoms: _304  and  _305
REMARK  121  A    between atoms: _308  and  _310
REMARK  122  A    between atoms: _310  and  _311
REMARK  123  A    between atoms: _310  and  _313
REMARK  124  A    between atoms: _313  and  _314
REMARK  125  A    between atoms: _317  and  _319
REMARK  126  A    between atoms: _319  and  _320
REMARK  127  A    between atoms: _319  and  _322
REMARK  128  A    between atoms: _322  and  _323
REMARK  129  A    between atoms: _326  and  _328
REMARK  130  A    between atoms: _328  and  _329
REMARK  131  A    between atoms: _328  and  _331
REMARK  132  A    between atoms: _331  and  _332
REMARK  133  A    between atoms: _335  and  _337
REMARK  134  A    between atoms: _337  and  _338
REMARK  135  A    between atoms: _340  and  _342
REMARK  136  A    between atoms: _342  and  _343
REMARK  137  A    between atoms: _346  and  _348
REMARK  138  A    between atoms: _348  and  _349
REMARK  139  A    between atoms: _348  and  _351
REMARK  140  A    between atoms: _351  and  _352
REMARK  141  A    between atoms: _355  and  _357
REMARK  142  A    between atoms: _357  and  _358
REMARK  143  A    between atoms: _357  and  _360
REMARK  144  A    between atoms: _360  and  _361
REMARK  145  A    between atoms: _364  and  _366
REMARK  146  A    between atoms: _366  and  _367
REMARK  147  A    between atoms: _366  and  _369
REMARK  148  A    between atoms: _369  and  _370
REMARK  149  A    between atoms: _373  and  _375
REMARK  150  A    between atoms: _375  and  _376
REMARK  151  A    between atoms: _375  and  _378
REMARK  152  A    between atoms: _381  and  _383
REMARK  153  A    between atoms: _383  and  _384
REMARK  154  A    between atoms: _383  and  _386
REMARK  155  A    between atoms: _386  and  _387
REMARK  156  A    between atoms: _387  and  _388
REMARK  157  A    between atoms: _388  and  _389
REMARK  158  A    between atoms: _398  and  _400
REMARK  159  A    between atoms: _400  and  _401
REMARK  160  A    between atoms: _400  and  _403
REMARK  161  A    between atoms: _403  and  _404
REMARK  162  A    between atoms: _407  and  _409
REMARK  163  A    between atoms: _409  and  _410
REMARK  164  A    between atoms: _409  and  _412
REMARK  165  A    between atoms: _412  and  _413
REMARK  166  A    between atoms: _416  and  _418
REMARK  167  A    between atoms: _418  and  _419
REMARK  168  A    between atoms: _421  and  _423
REMARK  169  A    between atoms: _423  and  _424
REMARK  170  A    between atoms: _426  and  _428
REMARK  171  A    between atoms: _428  and  _429
REMARK  172  A    between atoms: _428  and  _431
REMARK  173  A    between atoms: _431  and  _432
REMARK  174  A    between atoms: _435  and  _437
REMARK  175  A    between atoms: _437  and  _438
REMARK  176  A    between atoms: _440  and  _442
REMARK  177  A    between atoms: _442  and  _443
REMARK  178  A    between atoms: _445  and  _447
REMARK  179  A    between atoms: _447  and  _448
REMARK  180  A    between atoms: _447  and  _450
REMARK  181  A    between atoms: _453  and  _455
REMARK  182  A    between atoms: _455  and  _456
REMARK  183  A    between atoms: _455  and  _458
REMARK  184  A    between atoms: _458  and  _459
REMARK  185  A    between atoms: _462  and  _464
REMARK  186  A    between atoms: _464  and  _465
REMARK  187  A    between atoms: _464  and  _467
REMARK  188  A    between atoms: _467  and  _468
REMARK  189  A    between atoms: _472  and  _473
REMARK  190  A    between atoms: _478  and  _480
REMARK  191  A    between atoms: _480  and  _481
REMARK  192  A    between atoms: _480  and  _483
REMARK  193  A    between atoms: _483  and  _484
REMARK  194  A    between atoms: _487  and  _489
REMARK  195  A    between atoms: _489  and  _490
REMARK  196  A    between atoms: _489  and  _492
REMARK  197  A    between atoms: _492  and  _493
REMARK  198  A    between atoms: _498  and  _500
REMARK  199  A    between atoms: _500  and  _501
REMARK  200  A    between atoms: _500  and  _503
REMARK  201  A    between atoms: _506  and  _508
REMARK  202  A    between atoms: _508  and  _509
REMARK  203  A    between atoms: _508  and  _511
REMARK  204  A    between atoms: _511  and  _512
REMARK  205  A    between atoms: _515  and  _517
REMARK  206  A    between atoms: _517  and  _518
REMARK  207  A    between atoms: _520  and  _522
REMARK  208  A    between atoms: _522  and  _523
REMARK  209  A    between atoms: _522  and  _525
REMARK  210  A    between atoms: _525  and  _526
REMARK  211  A    between atoms: _526  and  _527
REMARK  212  A    between atoms: _527  and  _528
REMARK  213  A    between atoms: _537  and  _539
REMARK  214  A    between atoms: _539  and  _540
REMARK  215  A    between atoms: _539  and  _542
REMARK  216  A    between atoms: _542  and  _543
REMARK                            x       y       z     vdW  Elec       q    Type
REMARK                         _______ _______ _______ _____ _____    ______ ____
ROOT
ATOM      1  O   HOH     1      -3.897  15.238  18.818  0.00  0.00    +0.000 OA
ENDROOT
TORSDOF 0
REMARK  Name = ../refined-set-2016/3ggu/3ggu_pocket.pdb
REMARK  216 active torsions:
REMARK  status: ('A' for Active; 'I' for Inactive)
REMARK    1  A    between atoms: _1  and  _3
REMARK    2  A    between atoms: _3  and  _4
REMARK    3  A    between atoms: _3  and  _6
REMARK    4  A    between atoms: _6  and  _7
REMARK    5  A    between atoms: _7  and  _8
REMARK    6  A    between atoms: _8  and  _9
REMARK    7  A    between atoms: _18  and  _20
REMARK    8  A    between atoms: _20  and  _21
REMARK    9  A    between atoms: _20  and  _23
REMARK   10  A    between atoms: _23  and  _24
REMARK   11  A    between atoms: _27  and  _29
REMARK   12  A    between atoms: _29  and  _30
REMARK   13  A    between atoms: _29  and  _32
REMARK   14  A    between atoms: _32  and  _33
REMARK   15  A    between atoms: _36  and  _38
REMARK   16  A    between atoms: _38  and  _39
REMARK   17  A    between atoms: _38  and  _41
REMARK   18  A    between atoms: _41  and  _42
REMARK   19  A    between atoms: _45  and  _47
REMARK   20  A    between atoms: _47  and  _48
REMARK   21  A    between atoms: _47  and  _50
REMARK   22  A    between atoms: _50  and  _51
REMARK   23  A    between atoms: _54  and  _56
REMARK   24  A    between atoms: _56  and  _57
REMARK   25  A    between atoms: _59  and  _61
REMARK   26  A    between atoms: _61  and  _62
REMARK   27  A    between atoms: _65  and  _67
REMARK   28  A    between atoms: _67  and  _68
REMARK   29  A    between atoms: _67  and  _70
REMARK   30  A    between atoms: _70  and  _71
REMARK   31  A    between atoms: _74  and  _76
REMARK   32  A    between atoms: _76  and  _77
REMARK   33  A    between atoms: _76  and  _79
REMARK   34  A    between atoms: _79  and  _80
REMARK   35  A    between atoms: _83  and  _85
REMARK   36  A    between atoms: _85  and  _86
REMARK   37  A    between atoms: _85  and  _88
REMARK   38  A    between atoms: _88  and  _89
REMARK   39  A    between atoms: _92  and  _94
REMARK   40  A    between atoms: _94  and  _95
REMARK   41  A    between atoms: _94  and  _97
REMARK   42  A    between atoms: _100  and  _102
REMARK   43  A    between atoms: _102  and  _103
REMARK   44  A    between atoms: _102  and  _105
REMARK   45  A    between atoms: _105  and  _106
REMARK   46  A    between atoms: _106  and  _107
REMARK   47  A    between atoms: _107  and  _108
REMARK   48  A    between atoms: _117  and  _119
REMARK   49  A    between atoms: _119  and  _120
REMARK   50  A    between atoms: _119  and  _122
REMARK   51  A    between atoms: _122  and  _123
REMARK   52  A    between atoms: _126  and  _128
REMARK   53  A    between atoms: _128  and  _129
REMARK   54  A    between atoms: _128  and  _131
REMARK   55  A    between atoms: _131  and  _132
REMARK   56  A    between atoms: _135  and  _137
REMARK   57  A    between atoms: _137  and  _138
REMARK   58  A    between atoms: _140  and  _142
REMARK   59  A    between atoms: _142  and  _143
REMARK   60  A    between atoms: _145  and  _147
REMARK   61  A    between atoms: _147  and  _148
REMARK   62  A    between atoms: _147  and  _150
REMARK   63  A    between atoms: _150  and  _151
REMARK   64  A    between atoms: _154  and  _156
REMARK   65  A    between atoms: _156  and  _157
REMARK   66  A    between atoms: _159  and  _161
REMARK   67  A    between atoms: _161  and  _162
REMARK   68  A    between atoms: _164  and  _166
REMARK   69  A    between atoms: _166  and  _167
REMARK   70  A    between atoms: _166  and  _169
REMARK   71  A    between atoms: _172  and  _174
REMARK   72  A    between atoms: _174  and  _175
REMARK   73  A    between atoms: _174  and  _177
REMARK   74  A    between atoms: _180  and  _182
REMARK   75  A    between atoms: _182  and  _183
REMARK   76  A    between atoms: _182  and  _185
REMARK   77  A    between atoms: _185  and  _186
REMARK   78  A    between atoms: _190  and  _191
REMARK   79  A    between atoms: _196  and  _198
REMARK   80  A    between atoms: _198  and  _199
REMARK   81  A    between atoms: _198  and  _201
REMARK   82  A    between atoms: _201  and  _202
REMARK   83  A    between atoms: _206  and  _207
REMARK   84  A    between atoms: _212  and  _214
REMARK   85  A    between atoms: _214  and  _215
REMARK   86  A    between atoms: _214  and  _217
REMARK   87  A    between atoms: _217  and  _218
REMARK   88  A    between atoms: _221  and  _223
REMARK   89  A    between atoms: _223  and  _224
REMARK   90  A    between atoms: _223  and  _226
REMARK   91  A    between atoms: _226  and  _227
REMARK   92  A    between atoms: _232  and  _234
REMARK   93  A    between atoms: _234  and  _235
REMARK   94  A    between atoms: _234  and  _237
REMARK   95  A    between atoms: _240  and  _242
REMARK   96  A    between atoms: _242  and  _243
REMARK   97  A    between atoms: _242  and  _245
REMARK   98  A    between atoms: _245  and  _246
REMARK   99  A    between atoms: _249  and  _251
REMARK  100  A    between atoms: _251  and  _252
REMARK  101  A    between atoms: _254  and  _256
REMARK  102  A    between atoms: _256  and  _257
REMARK  103  A    between atoms: _256  and  _259
REMARK  104  A    between atoms: _259  and  _260
REMARK  105  A    between atoms: _260  and  _261
REMARK  106  A    between atoms: _261  and  _262
REMARK  107  A    between atoms: _271  and  _273
REMARK  108  A    between atoms: _273  and  _274
REMARK  109  A    between atoms: _273  and  _276
REMARK  110  A    between atoms: _276  and  _277
REMARK  111  A    between atoms: _282  and  _284
REMARK  112  A    between atoms: _284  and  _285
REMARK  113  A    between atoms: _284  and  _287
REMARK  114  A    between atoms: _287  and  _288
REMARK  115  A    between atoms: _288  and  _289
REMARK  116  A    between atoms: _289  and  _290
REMARK  117  A    between atoms: _299  and  _301
REMARK  118  A    between atoms: _301  and  _302
REMARK  119  A    between atoms: _301  and  _304
REMARK  120  A    between atoms: _304  and  _305
REMARK  121  A    between atoms: _308  and  _310
REMARK  122  A    between atoms: _310  and  _311
REMARK  123  A    between atoms: _310  and  _313
REMARK  124  A    between atoms: _313  and  _314
REMARK  125  A    between atoms: _317  and  _319
REMARK  126  A    between atoms: _319  and  _320
REMARK  127  A    between atoms: _319  and  _322
REMARK  128  A    between atoms: _322  and  _323
REMARK  129  A    between atoms: _326  and  _328
REMARK  130  A    between atoms: _328  and  _329
REMARK  131  A    between atoms: _328  and  _331
REMARK  132  A    between atoms: _331  and  _332
REMARK  133  A    between atoms: _335  and  _337
REMARK  134  A    between atoms: _337  and  _338
REMARK  135  A    between atoms: _340  and  _342
REMARK  136  A    between atoms: _342  and  _343
REMARK  137  A    between atoms: _346  and  _348
REMARK  138  A    between atoms: _348  and  _349
REMARK  139  A    between atoms: _348  and  _351
REMARK  140  A    between atoms: _351  and  _352
REMARK  141  A    between atoms: _355  and  _357
REMARK  142  A    between atoms: _357  and  _358
REMARK  143  A    between atoms: _357  and  _360
REMARK  144  A    between atoms: _360  and  _361
REMARK  145  A    between atoms: _364  and  _366
REMARK  146  A    between atoms: _366  and  _367
REMARK  147  A    between atoms: _366  and  _369
REMARK  148  A    between atoms: _369  and  _370
REMARK  149  A    between atoms: _373  and  _375
REMARK  150  A    between atoms: _375  and  _376
REMARK  151  A    between atoms: _375  and  _378
REMARK  152  A    between atoms: _381  and  _383
REMARK  153  A    between atoms: _383  and  _384
REMARK  154  A    between atoms: _383  and  _386
REMARK  155  A    between atoms: _386  and  _387
REMARK  156  A    between atoms: _387  and  _388
REMARK  157  A    between atoms: _388  and  _389
REMARK  158  A    between atoms: _398  and  _400
REMARK  159  A    between atoms: _400  and  _401
REMARK  160  A    between atoms: _400  and  _403
REMARK  161  A    between atoms: _403  and  _404
REMARK  162  A    between atoms: _407  and  _409
REMARK  163  A    between atoms: _409  and  _410
REMARK  164  A    between atoms: _409  and  _412
REMARK  165  A    between atoms: _412  and  _413
REMARK  166  A    between atoms: _416  and  _418
REMARK  167  A    between atoms: _418  and  _419
REMARK  168  A    between atoms: _421  and  _423
REMARK  169  A    between atoms: _423  and  _424
REMARK  170  A    between atoms: _426  and  _428
REMARK  171  A    between atoms: _428  and  _429
REMARK  172  A    between atoms: _428  and  _431
REMARK  173  A    between atoms: _431  and  _432
REMARK  174  A    between atoms: _435  and  _437
REMARK  175  A    between atoms: _437  and  _438
REMARK  176  A    between atoms: _440  and  _442
REMARK  177  A    between atoms: _442  and  _443
REMARK  178  A    between atoms: _445  and  _447
REMARK  179  A    between atoms: _447  and  _448
REMARK  180  A    between atoms: _447  and  _450
REMARK  181  A    between atoms: _453  and  _455
REMARK  182  A    between atoms: _455  and  _456
REMARK  183  A    between atoms: _455  and  _458
REMARK  184  A    between atoms: _458  and  _459
REMARK  185  A    between atoms: _462  and  _464
REMARK  186  A    between atoms: _464  and  _465
REMARK  187  A    between atoms: _464  and  _467
REMARK  188  A    between atoms: _467  and  _468
REMARK  189  A    between atoms: _472  and  _473
REMARK  190  A    between atoms: _478  and  _480
REMARK  191  A    between atoms: _480  and  _481
REMARK  192  A    between atoms: _480  and  _483
REMARK  193  A    between atoms: _483  and  _484
REMARK  194  A    between atoms: _487  and  _489
REMARK  195  A    between atoms: _489  and  _490
REMARK  196  A    between atoms: _489  and  _492
REMARK  197  A    between atoms: _492  and  _493
REMARK  198  A    between atoms: _498  and  _500
REMARK  199  A    between atoms: _500  and  _501
REMARK  200  A    between atoms: _500  and  _503
REMARK  201  A    between atoms: _506  and  _508
REMARK  202  A    between atoms: _508  and  _509
REMARK  203  A    between atoms: _508  and  _511
REMARK  204  A    between atoms: _511  and  _512
REMARK  205  A    between atoms: _515  and  _517
REMARK  206  A    between atoms: _517  and  _518
REMARK  207  A    between atoms: _520  and  _522
REMARK  208  A    between atoms: _522  and  _523
REMARK  209  A    between atoms: _522  and  _525
REMARK  210  A    between atoms: _525  and  _526
REMARK  211  A    between atoms: _526  and  _527
REMARK  212  A    between atoms: _527  and  _528
REMARK  213  A    between atoms: _537  and  _539
REMARK  214  A    between atoms: _539  and  _540
REMARK  215  A    between atoms: _539  and  _542
REMARK  216  A    between atoms: _542  and  _543
REMARK                            x       y       z     vdW  Elec       q    Type
REMARK                         _______ _______ _______ _____ _____    ______ ____
ROOT
ATOM      1  O   HOH     1     -21.422  13.564  31.247  0.00  0.00    +0.000 OA
ENDROOT
TORSDOF 0
REMARK  Name = ../refined-set-2016/3ggu/3ggu_pocket.pdb
REMARK  216 active torsions:
REMARK  status: ('A' for Active; 'I' for Inactive)
REMARK    1  A    between atoms: _1  and  _3
REMARK    2  A    between atoms: _3  and  _4
REMARK    3  A    between atoms: _3  and  _6
REMARK    4  A    between atoms: _6  and  _7
REMARK    5  A    between atoms: _7  and  _8
REMARK    6  A    between atoms: _8  and  _9
REMARK    7  A    between atoms: _18  and  _20
REMARK    8  A    between atoms: _20  and  _21
REMARK    9  A    between atoms: _20  and  _23
REMARK   10  A    between atoms: _23  and  _24
REMARK   11  A    between atoms: _27  and  _29
REMARK   12  A    between atoms: _29  and  _30
REMARK   13  A    between atoms: _29  and  _32
REMARK   14  A    between atoms: _32  and  _33
REMARK   15  A    between atoms: _36  and  _38
REMARK   16  A    between atoms: _38  and  _39
REMARK   17  A    between atoms: _38  and  _41
REMARK   18  A    between atoms: _41  and  _42
REMARK   19  A    between atoms: _45  and  _47
REMARK   20  A    between atoms: _47  and  _48
REMARK   21  A    between atoms: _47  and  _50
REMARK   22  A    between atoms: _50  and  _51
REMARK   23  A    between atoms: _54  and  _56
REMARK   24  A    between atoms: _56  and  _57
REMARK   25  A    between atoms: _59  and  _61
REMARK   26  A    between atoms: _61  and  _62
REMARK   27  A    between atoms: _65  and  _67
REMARK   28  A    between atoms: _67  and  _68
REMARK   29  A    between atoms: _67  and  _70
REMARK   30  A    between atoms: _70  and  _71
REMARK   31  A    between atoms: _74  and  _76
REMARK   32  A    between atoms: _76  and  _77
REMARK   33  A    between atoms: _76  and  _79
REMARK   34  A    between atoms: _79  and  _80
REMARK   35  A    between atoms: _83  and  _85
REMARK   36  A    between atoms: _85  and  _86
REMARK   37  A    between atoms: _85  and  _88
REMARK   38  A    between atoms: _88  and  _89
REMARK   39  A    between atoms: _92  and  _94
REMARK   40  A    between atoms: _94  and  _95
REMARK   41  A    between atoms: _94  and  _97
REMARK   42  A    between atoms: _100  and  _102
REMARK   43  A    between atoms: _102  and  _103
REMARK   44  A    between atoms: _102  and  _105
REMARK   45  A    between atoms: _105  and  _106
REMARK   46  A    between atoms: _106  and  _107
REMARK   47  A    between atoms: _107  and  _108
REMARK   48  A    between atoms: _117  and  _119
REMARK   49  A    between atoms: _119  and  _120
REMARK   50  A    between atoms: _119  and  _122
REMARK   51  A    between atoms: _122  and  _123
REMARK   52  A    between atoms: _126  and  _128
REMARK   53  A    between atoms: _128  and  _129
REMARK   54  A    between atoms: _128  and  _131
REMARK   55  A    between atoms: _131  and  _132
REMARK   56  A    between atoms: _135  and  _137
REMARK   57  A    between atoms: _137  and  _138
REMARK   58  A    between atoms: _140  and  _142
REMARK   59  A    between atoms: _142  and  _143
REMARK   60  A    between atoms: _145  and  _147
REMARK   61  A    between atoms: _147  and  _148
REMARK   62  A    between atoms: _147  and  _150
REMARK   63  A    between atoms: _150  and  _151
REMARK   64  A    between atoms: _154  and  _156
REMARK   65  A    between atoms: _156  and  _157
REMARK   66  A    between atoms: _159  and  _161
REMARK   67  A    between atoms: _161  and  _162
REMARK   68  A    between atoms: _164  and  _166
REMARK   69  A    between atoms: _166  and  _167
REMARK   70  A    between atoms: _166  and  _169
REMARK   71  A    between atoms: _172  and  _174
REMARK   72  A    between atoms: _174  and  _175
REMARK   73  A    between atoms: _174  and  _177
REMARK   74  A    between atoms: _180  and  _182
REMARK   75  A    between atoms: _182  and  _183
REMARK   76  A    between atoms: _182  and  _185
REMARK   77  A    between atoms: _185  and  _186
REMARK   78  A    between atoms: _190  and  _191
REMARK   79  A    between atoms: _196  and  _198
REMARK   80  A    between atoms: _198  and  _199
REMARK   81  A    between atoms: _198  and  _201
REMARK   82  A    between atoms: _201  and  _202
REMARK   83  A    between atoms: _206  and  _207
REMARK   84  A    between atoms: _212  and  _214
REMARK   85  A    between atoms: _214  and  _215
REMARK   86  A    between atoms: _214  and  _217
REMARK   87  A    between atoms: _217  and  _218
REMARK   88  A    between atoms: _221  and  _223
REMARK   89  A    between atoms: _223  and  _224
REMARK   90  A    between atoms: _223  and  _226
REMARK   91  A    between atoms: _226  and  _227
REMARK   92  A    between atoms: _232  and  _234
REMARK   93  A    between atoms: _234  and  _235
REMARK   94  A    between atoms: _234  and  _237
REMARK   95  A    between atoms: _240  and  _242
REMARK   96  A    between atoms: _242  and  _243
REMARK   97  A    between atoms: _242  and  _245
REMARK   98  A    between atoms: _245  and  _246
REMARK   99  A    between atoms: _249  and  _251
REMARK  100  A    between atoms: _251  and  _252
REMARK  101  A    between atoms: _254  and  _256
REMARK  102  A    between atoms: _256  and  _257
REMARK  103  A    between atoms: _256  and  _259
REMARK  104  A    between atoms: _259  and  _260
REMARK  105  A    between atoms: _260  and  _261
REMARK  106  A    between atoms: _261  and  _262
REMARK  107  A    between atoms: _271  and  _273
REMARK  108  A    between atoms: _273  and  _274
REMARK  109  A    between atoms: _273  and  _276
REMARK  110  A    between atoms: _276  and  _277
REMARK  111  A    between atoms: _282  and  _284
REMARK  112  A    between atoms: _284  and  _285
REMARK  113  A    between atoms: _284  and  _287
REMARK  114  A    between atoms: _287  and  _288
REMARK  115  A    between atoms: _288  and  _289
REMARK  116  A    between atoms: _289  and  _290
REMARK  117  A    between atoms: _299  and  _301
REMARK  118  A    between atoms: _301  and  _302
REMARK  119  A    between atoms: _301  and  _304
REMARK  120  A    between atoms: _304  and  _305
REMARK  121  A    between atoms: _308  and  _310
REMARK  122  A    between atoms: _310  and  _311
REMARK  123  A    between atoms: _310  and  _313
REMARK  124  A    between atoms: _313  and  _314
REMARK  125  A    between atoms: _317  and  _319
REMARK  126  A    between atoms: _319  and  _320
REMARK  127  A    between atoms: _319  and  _322
REMARK  128  A    between atoms: _322  and  _323
REMARK  129  A    between atoms: _326  and  _328
REMARK  130  A    between atoms: _328  and  _329
REMARK  131  A    between atoms: _328  and  _331
REMARK  132  A    between atoms: _331  and  _332
REMARK  133  A    between atoms: _335  and  _337
REMARK  134  A    between atoms: _337  and  _338
REMARK  135  A    between atoms: _340  and  _342
REMARK  136  A    between atoms: _342  and  _343
REMARK  137  A    between atoms: _346  and  _348
REMARK  138  A    between atoms: _348  and  _349
REMARK  139  A    between atoms: _348  and  _351
REMARK  140  A    between atoms: _351  and  _352
REMARK  141  A    between atoms: _355  and  _357
REMARK  142  A    between atoms: _357  and  _358
REMARK  143  A    between atoms: _357  and  _360
REMARK  144  A    between atoms: _360  and  _361
REMARK  145  A    between atoms: _364  and  _366
REMARK  146  A    between atoms: _366  and  _367
REMARK  147  A    between atoms: _366  and  _369
REMARK  148  A    between atoms: _369  and  _370
REMARK  149  A    between atoms: _373  and  _375
REMARK  150  A    between atoms: _375  and  _376
REMARK  151  A    between atoms: _375  and  _378
REMARK  152  A    between atoms: _381  and  _383
REMARK  153  A    between atoms: _383  and  _384
REMARK  154  A    between atoms: _383  and  _386
REMARK  155  A    between atoms: _386  and  _387
REMARK  156  A    between atoms: _387  and  _388
REMARK  157  A    between atoms: _388  and  _389
REMARK  158  A    between atoms: _398  and  _400
REMARK  159  A    between atoms: _400  and  _401
REMARK  160  A    between atoms: _400  and  _403
REMARK  161  A    between atoms: _403  and  _404
REMARK  162  A    between atoms: _407  and  _409
REMARK  163  A    between atoms: _409  and  _410
REMARK  164  A    between atoms: _409  and  _412
REMARK  165  A    between atoms: _412  and  _413
REMARK  166  A    between atoms: _416  and  _418
REMARK  167  A    between atoms: _418  and  _419
REMARK  168  A    between atoms: _421  and  _423
REMARK  169  A    between atoms: _423  and  _424
REMARK  170  A    between atoms: _426  and  _428
REMARK  171  A    between atoms: _428  and  _429
REMARK  172  A    between atoms: _428  and  _431
REMARK  173  A    between atoms: _431  and  _432
REMARK  174  A    between atoms: _435  and  _437
REMARK  175  A    between atoms: _437  and  _438
REMARK  176  A    between atoms: _440  and  _442
REMARK  177  A    between atoms: _442  and  _443
REMARK  178  A    between atoms: _445  and  _447
REMARK  179  A    between atoms: _447  and  _448
REMARK  180  A    between atoms: _447  and  _450
REMARK  181  A    between atoms: _453  and  _455
REMARK  182  A    between atoms: _455  and  _456
REMARK  183  A    between atoms: _455  and  _458
REMARK  184  A    between atoms: _458  and  _459
REMARK  185  A    between atoms: _462  and  _464
REMARK  186  A    between atoms: _464  and  _465
REMARK  187  A    between atoms: _464  and  _467
REMARK  188  A    between atoms: _467  and  _468
REMARK  189  A    between atoms: _472  and  _473
REMARK  190  A    between atoms: _478  and  _480
REMARK  191  A    between atoms: _480  and  _481
REMARK  192  A    between atoms: _480  and  _483
REMARK  193  A    between atoms: _483  and  _484
REMARK  194  A    between atoms: _487  and  _489
REMARK  195  A    between atoms: _489  and  _490
REMARK  196  A    between atoms: _489  and  _492
REMARK  197  A    between atoms: _492  and  _493
REMARK  198  A    between atoms: _498  and  _500
REMARK  199  A    between atoms: _500  and  _501
REMARK  200  A    between atoms: _500  and  _503
REMARK  201  A    between atoms: _506  and  _508
REMARK  202  A    between atoms: _508  and  _509
REMARK  203  A    between atoms: _508  and  _511
REMARK  204  A    between atoms: _511  and  _512
REMARK  205  A    between atoms: _515  and  _517
REMARK  206  A    between atoms: _517  and  _518
REMARK  207  A    between atoms: _520  and  _522
REMARK  208  A    between atoms: _522  and  _523
REMARK  209  A    between atoms: _522  and  _525
REMARK  210  A    between atoms: _525  and  _526
REMARK  211  A    between atoms: _526  and  _527
REMARK  212  A    between atoms: _527  and  _528
REMARK  213  A    between atoms: _537  and  _539
REMARK  214  A    between atoms: _539  and  _540
REMARK  215  A    between atoms: _539  and  _542
REMARK  216  A    between atoms: _542  and  _543
REMARK                            x       y       z     vdW  Elec       q    Type
REMARK                         _______ _______ _______ _____ _____    ______ ____
ROOT
ATOM      1  O   HOH     1      -7.047  22.613  15.137  0.00  0.00    +0.000 OA
ENDROOT
TORSDOF 0
REMARK  Name = ../refined-set-2016/3ggu/3ggu_pocket.pdb
REMARK  216 active torsions:
REMARK  status: ('A' for Active; 'I' for Inactive)
REMARK    1  A    between atoms: _1  and  _3
REMARK    2  A    between atoms: _3  and  _4
REMARK    3  A    between atoms: _3  and  _6
REMARK    4  A    between atoms: _6  and  _7
REMARK    5  A    between atoms: _7  and  _8
REMARK    6  A    between atoms: _8  and  _9
REMARK    7  A    between atoms: _18  and  _20
REMARK    8  A    between atoms: _20  and  _21
REMARK    9  A    between atoms: _20  and  _23
REMARK   10  A    between atoms: _23  and  _24
REMARK   11  A    between atoms: _27  and  _29
REMARK   12  A    between atoms: _29  and  _30
REMARK   13  A    between atoms: _29  and  _32
REMARK   14  A    between atoms: _32  and  _33
REMARK   15  A    between atoms: _36  and  _38
REMARK   16  A    between atoms: _38  and  _39
REMARK   17  A    between atoms: _38  and  _41
REMARK   18  A    between atoms: _41  and  _42
REMARK   19  A    between atoms: _45  and  _47
REMARK   20  A    between atoms: _47  and  _48
REMARK   21  A    between atoms: _47  and  _50
REMARK   22  A    between atoms: _50  and  _51
REMARK   23  A    between atoms: _54  and  _56
REMARK   24  A    between atoms: _56  and  _57
REMARK   25  A    between atoms: _59  and  _61
REMARK   26  A    between atoms: _61  and  _62
REMARK   27  A    between atoms: _65  and  _67
REMARK   28  A    between atoms: _67  and  _68
REMARK   29  A    between atoms: _67  and  _70
REMARK   30  A    between atoms: _70  and  _71
REMARK   31  A    between atoms: _74  and  _76
REMARK   32  A    between atoms: _76  and  _77
REMARK   33  A    between atoms: _76  and  _79
REMARK   34  A    between atoms: _79  and  _80
REMARK   35  A    between atoms: _83  and  _85
REMARK   36  A    between atoms: _85  and  _86
REMARK   37  A    between atoms: _85  and  _88
REMARK   38  A    between atoms: _88  and  _89
REMARK   39  A    between atoms: _92  and  _94
REMARK   40  A    between atoms: _94  and  _95
REMARK   41  A    between atoms: _94  and  _97
REMARK   42  A    between atoms: _100  and  _102
REMARK   43  A    between atoms: _102  and  _103
REMARK   44  A    between atoms: _102  and  _105
REMARK   45  A    between atoms: _105  and  _106
REMARK   46  A    between atoms: _106  and  _107
REMARK   47  A    between atoms: _107  and  _108
REMARK   48  A    between atoms: _117  and  _119
REMARK   49  A    between atoms: _119  and  _120
REMARK   50  A    between atoms: _119  and  _122
REMARK   51  A    between atoms: _122  and  _123
REMARK   52  A    between atoms: _126  and  _128
REMARK   53  A    between atoms: _128  and  _129
REMARK   54  A    between atoms: _128  and  _131
REMARK   55  A    between atoms: _131  and  _132
REMARK   56  A    between atoms: _135  and  _137
REMARK   57  A    between atoms: _137  and  _138
REMARK   58  A    between atoms: _140  and  _142
REMARK   59  A    between atoms: _142  and  _143
REMARK   60  A    between atoms: _145  and  _147
REMARK   61  A    between atoms: _147  and  _148
REMARK   62  A    between atoms: _147  and  _150
REMARK   63  A    between atoms: _150  and  _151
REMARK   64  A    between atoms: _154  and  _156
REMARK   65  A    between atoms: _156  and  _157
REMARK   66  A    between atoms: _159  and  _161
REMARK   67  A    between atoms: _161  and  _162
REMARK   68  A    between atoms: _164  and  _166
REMARK   69  A    between atoms: _166  and  _167
REMARK   70  A    between atoms: _166  and  _169
REMARK   71  A    between atoms: _172  and  _174
REMARK   72  A    between atoms: _174  and  _175
REMARK   73  A    between atoms: _174  and  _177
REMARK   74  A    between atoms: _180  and  _182
REMARK   75  A    between atoms: _182  and  _183
REMARK   76  A    between atoms: _182  and  _185
REMARK   77  A    between atoms: _185  and  _186
REMARK   78  A    between atoms: _190  and  _191
REMARK   79  A    between atoms: _196  and  _198
REMARK   80  A    between atoms: _198  and  _199
REMARK   81  A    between atoms: _198  and  _201
REMARK   82  A    between atoms: _201  and  _202
REMARK   83  A    between atoms: _206  and  _207
REMARK   84  A    between atoms: _212  and  _214
REMARK   85  A    between atoms: _214  and  _215
REMARK   86  A    between atoms: _214  and  _217
REMARK   87  A    between atoms: _217  and  _218
REMARK   88  A    between atoms: _221  and  _223
REMARK   89  A    between atoms: _223  and  _224
REMARK   90  A    between atoms: _223  and  _226
REMARK   91  A    between atoms: _226  and  _227
REMARK   92  A    between atoms: _232  and  _234
REMARK   93  A    between atoms: _234  and  _235
REMARK   94  A    between atoms: _234  and  _237
REMARK   95  A    between atoms: _240  and  _242
REMARK   96  A    between atoms: _242  and  _243
REMARK   97  A    between atoms: _242  and  _245
REMARK   98  A    between atoms: _245  and  _246
REMARK   99  A    between atoms: _249  and  _251
REMARK  100  A    between atoms: _251  and  _252
REMARK  101  A    between atoms: _254  and  _256
REMARK  102  A    between atoms: _256  and  _257
REMARK  103  A    between atoms: _256  and  _259
REMARK  104  A    between atoms: _259  and  _260
REMARK  105  A    between atoms: _260  and  _261
REMARK  106  A    between atoms: _261  and  _262
REMARK  107  A    between atoms: _271  and  _273
REMARK  108  A    between atoms: _273  and  _274
REMARK  109  A    between atoms: _273  and  _276
REMARK  110  A    between atoms: _276  and  _277
REMARK  111  A    between atoms: _282  and  _284
REMARK  112  A    between atoms: _284  and  _285
REMARK  113  A    between atoms: _284  and  _287
REMARK  114  A    between atoms: _287  and  _288
REMARK  115  A    between atoms: _288  and  _289
REMARK  116  A    between atoms: _289  and  _290
REMARK  117  A    between atoms: _299  and  _301
REMARK  118  A    between atoms: _301  and  _302
REMARK  119  A    between atoms: _301  and  _304
REMARK  120  A    between atoms: _304  and  _305
REMARK  121  A    between atoms: _308  and  _310
REMARK  122  A    between atoms: _310  and  _311
REMARK  123  A    between atoms: _310  and  _313
REMARK  124  A    between atoms: _313  and  _314
REMARK  125  A    between atoms: _317  and  _319
REMARK  126  A    between atoms: _319  and  _320
REMARK  127  A    between atoms: _319  and  _322
REMARK  128  A    between atoms: _322  and  _323
REMARK  129  A    between atoms: _326  and  _328
REMARK  130  A    between atoms: _328  and  _329
REMARK  131  A    between atoms: _328  and  _331
REMARK  132  A    between atoms: _331  and  _332
REMARK  133  A    between atoms: _335  and  _337
REMARK  134  A    between atoms: _337  and  _338
REMARK  135  A    between atoms: _340  and  _342
REMARK  136  A    between atoms: _342  and  _343
REMARK  137  A    between atoms: _346  and  _348
REMARK  138  A    between atoms: _348  and  _349
REMARK  139  A    between atoms: _348  and  _351
REMARK  140  A    between atoms: _351  and  _352
REMARK  141  A    between atoms: _355  and  _357
REMARK  142  A    between atoms: _357  and  _358
REMARK  143  A    between atoms: _357  and  _360
REMARK  144  A    between atoms: _360  and  _361
REMARK  145  A    between atoms: _364  and  _366
REMARK  146  A    between atoms: _366  and  _367
REMARK  147  A    between atoms: _366  and  _369
REMARK  148  A    between atoms: _369  and  _370
REMARK  149  A    between atoms: _373  and  _375
REMARK  150  A    between atoms: _375  and  _376
REMARK  151  A    between atoms: _375  and  _378
REMARK  152  A    between atoms: _381  and  _383
REMARK  153  A    between atoms: _383  and  _384
REMARK  154  A    between atoms: _383  and  _386
REMARK  155  A    between atoms: _386  and  _387
REMARK  156  A    between atoms: _387  and  _388
REMARK  157  A    between atoms: _388  and  _389
REMARK  158  A    between atoms: _398  and  _400
REMARK  159  A    between atoms: _400  and  _401
REMARK  160  A    between atoms: _400  and  _403
REMARK  161  A    between atoms: _403  and  _404
REMARK  162  A    between atoms: _407  and  _409
REMARK  163  A    between atoms: _409  and  _410
REMARK  164  A    between atoms: _409  and  _412
REMARK  165  A    between atoms: _412  and  _413
REMARK  166  A    between atoms: _416  and  _418
REMARK  167  A    between atoms: _418  and  _419
REMARK  168  A    between atoms: _421  and  _423
REMARK  169  A    between atoms: _423  and  _424
REMARK  170  A    between atoms: _426  and  _428
REMARK  171  A    between atoms: _428  and  _429
REMARK  172  A    between atoms: _428  and  _431
REMARK  173  A    between atoms: _431  and  _432
REMARK  174  A    between atoms: _435  and  _437
REMARK  175  A    between atoms: _437  and  _438
REMARK  176  A    between atoms: _440  and  _442
REMARK  177  A    between atoms: _442  and  _443
REMARK  178  A    between atoms: _445  and  _447
REMARK  179  A    between atoms: _447  and  _448
REMARK  180  A    between atoms: _447  and  _450
REMARK  181  A    between atoms: _453  and  _455
REMARK  182  A    between atoms: _455  and  _456
REMARK  183  A    between atoms: _455  and  _458
REMARK  184  A    between atoms: _458  and  _459
REMARK  185  A    between atoms: _462  and  _464
REMARK  186  A    between atoms: _464  and  _465
REMARK  187  A    between atoms: _464  and  _467
REMARK  188  A    between atoms: _467  and  _468
REMARK  189  A    between atoms: _472  and  _473
REMARK  190  A    between atoms: _478  and  _480
REMARK  191  A    between atoms: _480  and  _481
REMARK  192  A    between atoms: _480  and  _483
REMARK  193  A    between atoms: _483  and  _484
REMARK  194  A    between atoms: _487  and  _489
REMARK  195  A    between atoms: _489  and  _490
REMARK  196  A    between atoms: _489  and  _492
REMARK  197  A    between atoms: _492  and  _493
REMARK  198  A    between atoms: _498  and  _500
REMARK  199  A    between atoms: _500  and  _501
REMARK  200  A    between atoms: _500  and  _503
REMARK  201  A    between atoms: _506  and  _508
REMARK  202  A    between atoms: _508  and  _509
REMARK  203  A    between atoms: _508  and  _511
REMARK  204  A    between atoms: _511  and  _512
REMARK  205  A    between atoms: _515  and  _517
REMARK  206  A    between atoms: _517  and  _518
REMARK  207  A    between atoms: _520  and  _522
REMARK  208  A    between atoms: _522  and  _523
REMARK  209  A    between atoms: _522  and  _525
REMARK  210  A    between atoms: _525  and  _526
REMARK  211  A    between atoms: _526  and  _527
REMARK  212  A    between atoms: _527  and  _528
REMARK  213  A    between atoms: _537  and  _539
REMARK  214  A    between atoms: _539  and  _540
REMARK  215  A    between atoms: _539  and  _542
REMARK  216  A    between atoms: _542  and  _543
REMARK                            x       y       z     vdW  Elec       q    Type
REMARK                         _______ _______ _______ _____ _____    ______ ____
ROOT
ATOM      1  O   HOH     1      -7.930  13.694  26.811  0.00  0.00    +0.000 OA
ENDROOT
TORSDOF 0
REMARK  Name = ../refined-set-2016/3ggu/3ggu_pocket.pdb
REMARK  216 active torsions:
REMARK  status: ('A' for Active; 'I' for Inactive)
REMARK    1  A    between atoms: _1  and  _3
REMARK    2  A    between atoms: _3  and  _4
REMARK    3  A    between atoms: _3  and  _6
REMARK    4  A    between atoms: _6  and  _7
REMARK    5  A    between atoms: _7  and  _8
REMARK    6  A    between atoms: _8  and  _9
REMARK    7  A    between atoms: _18  and  _20
REMARK    8  A    between atoms: _20  and  _21
REMARK    9  A    between atoms: _20  and  _23
REMARK   10  A    between atoms: _23  and  _24
REMARK   11  A    between atoms: _27  and  _29
REMARK   12  A    between atoms: _29  and  _30
REMARK   13  A    between atoms: _29  and  _32
REMARK   14  A    between atoms: _32  and  _33
REMARK   15  A    between atoms: _36  and  _38
REMARK   16  A    between atoms: _38  and  _39
REMARK   17  A    between atoms: _38  and  _41
REMARK   18  A    between atoms: _41  and  _42
REMARK   19  A    between atoms: _45  and  _47
REMARK   20  A    between atoms: _47  and  _48
REMARK   21  A    between atoms: _47  and  _50
REMARK   22  A    between atoms: _50  and  _51
REMARK   23  A    between atoms: _54  and  _56
REMARK   24  A    between atoms: _56  and  _57
REMARK   25  A    between atoms: _59  and  _61
REMARK   26  A    between atoms: _61  and  _62
REMARK   27  A    between atoms: _65  and  _67
REMARK   28  A    between atoms: _67  and  _68
REMARK   29  A    between atoms: _67  and  _70
REMARK   30  A    between atoms: _70  and  _71
REMARK   31  A    between atoms: _74  and  _76
REMARK   32  A    between atoms: _76  and  _77
REMARK   33  A    between atoms: _76  and  _79
REMARK   34  A    between atoms: _79  and  _80
REMARK   35  A    between atoms: _83  and  _85
REMARK   36  A    between atoms: _85  and  _86
REMARK   37  A    between atoms: _85  and  _88
REMARK   38  A    between atoms: _88  and  _89
REMARK   39  A    between atoms: _92  and  _94
REMARK   40  A    between atoms: _94  and  _95
REMARK   41  A    between atoms: _94  and  _97
REMARK   42  A    between atoms: _100  and  _102
REMARK   43  A    between atoms: _102  and  _103
REMARK   44  A    between atoms: _102  and  _105
REMARK   45  A    between atoms: _105  and  _106
REMARK   46  A    between atoms: _106  and  _107
REMARK   47  A    between atoms: _107  and  _108
REMARK   48  A    between atoms: _117  and  _119
REMARK   49  A    between atoms: _119  and  _120
REMARK   50  A    between atoms: _119  and  _122
REMARK   51  A    between atoms: _122  and  _123
REMARK   52  A    between atoms: _126  and  _128
REMARK   53  A    between atoms: _128  and  _129
REMARK   54  A    between atoms: _128  and  _131
REMARK   55  A    between atoms: _131  and  _132
REMARK   56  A    between atoms: _135  and  _137
REMARK   57  A    between atoms: _137  and  _138
REMARK   58  A    between atoms: _140  and  _142
REMARK   59  A    between atoms: _142  and  _143
REMARK   60  A    between atoms: _145  and  _147
REMARK   61  A    between atoms: _147  and  _148
REMARK   62  A    between atoms: _147  and  _150
REMARK   63  A    between atoms: _150  and  _151
REMARK   64  A    between atoms: _154  and  _156
REMARK   65  A    between atoms: _156  and  _157
REMARK   66  A    between atoms: _159  and  _161
REMARK   67  A    between atoms: _161  and  _162
REMARK   68  A    between atoms: _164  and  _166
REMARK   69  A    between atoms: _166  and  _167
REMARK   70  A    between atoms: _166  and  _169
REMARK   71  A    between atoms: _172  and  _174
REMARK   72  A    between atoms: _174  and  _175
REMARK   73  A    between atoms: _174  and  _177
REMARK   74  A    between atoms: _180  and  _182
REMARK   75  A    between atoms: _182  and  _183
REMARK   76  A    between atoms: _182  and  _185
REMARK   77  A    between atoms: _185  and  _186
REMARK   78  A    between atoms: _190  and  _191
REMARK   79  A    between atoms: _196  and  _198
REMARK   80  A    between atoms: _198  and  _199
REMARK   81  A    between atoms: _198  and  _201
REMARK   82  A    between atoms: _201  and  _202
REMARK   83  A    between atoms: _206  and  _207
REMARK   84  A    between atoms: _212  and  _214
REMARK   85  A    between atoms: _214  and  _215
REMARK   86  A    between atoms: _214  and  _217
REMARK   87  A    between atoms: _217  and  _218
REMARK   88  A    between atoms: _221  and  _223
REMARK   89  A    between atoms: _223  and  _224
REMARK   90  A    between atoms: _223  and  _226
REMARK   91  A    between atoms: _226  and  _227
REMARK   92  A    between atoms: _232  and  _234
REMARK   93  A    between atoms: _234  and  _235
REMARK   94  A    between atoms: _234  and  _237
REMARK   95  A    between atoms: _240  and  _242
REMARK   96  A    between atoms: _242  and  _243
REMARK   97  A    between atoms: _242  and  _245
REMARK   98  A    between atoms: _245  and  _246
REMARK   99  A    between atoms: _249  and  _251
REMARK  100  A    between atoms: _251  and  _252
REMARK  101  A    between atoms: _254  and  _256
REMARK  102  A    between atoms: _256  and  _257
REMARK  103  A    between atoms: _256  and  _259
REMARK  104  A    between atoms: _259  and  _260
REMARK  105  A    between atoms: _260  and  _261
REMARK  106  A    between atoms: _261  and  _262
REMARK  107  A    between atoms: _271  and  _273
REMARK  108  A    between atoms: _273  and  _274
REMARK  109  A    between atoms: _273  and  _276
REMARK  110  A    between atoms: _276  and  _277
REMARK  111  A    between atoms: _282  and  _284
REMARK  112  A    between atoms: _284  and  _285
REMARK  113  A    between atoms: _284  and  _287
REMARK  114  A    between atoms: _287  and  _288
REMARK  115  A    between atoms: _288  and  _289
REMARK  116  A    between atoms: _289  and  _290
REMARK  117  A    between atoms: _299  and  _301
REMARK  118  A    between atoms: _301  and  _302
REMARK  119  A    between atoms: _301  and  _304
REMARK  120  A    between atoms: _304  and  _305
REMARK  121  A    between atoms: _308  and  _310
REMARK  122  A    between atoms: _310  and  _311
REMARK  123  A    between atoms: _310  and  _313
REMARK  124  A    between atoms: _313  and  _314
REMARK  125  A    between atoms: _317  and  _319
REMARK  126  A    between atoms: _319  and  _320
REMARK  127  A    between atoms: _319  and  _322
REMARK  128  A    between atoms: _322  and  _323
REMARK  129  A    between atoms: _326  and  _328
REMARK  130  A    between atoms: _328  and  _329
REMARK  131  A    between atoms: _328  and  _331
REMARK  132  A    between atoms: _331  and  _332
REMARK  133  A    between atoms: _335  and  _337
REMARK  134  A    between atoms: _337  and  _338
REMARK  135  A    between atoms: _340  and  _342
REMARK  136  A    between atoms: _342  and  _343
REMARK  137  A    between atoms: _346  and  _348
REMARK  138  A    between atoms: _348  and  _349
REMARK  139  A    between atoms: _348  and  _351
REMARK  140  A    between atoms: _351  and  _352
REMARK  141  A    between atoms: _355  and  _357
REMARK  142  A    between atoms: _357  and  _358
REMARK  143  A    between atoms: _357  and  _360
REMARK  144  A    between atoms: _360  and  _361
REMARK  145  A    between atoms: _364  and  _366
REMARK  146  A    between atoms: _366  and  _367
REMARK  147  A    between atoms: _366  and  _369
REMARK  148  A    between atoms: _369  and  _370
REMARK  149  A    between atoms: _373  and  _375
REMARK  150  A    between atoms: _375  and  _376
REMARK  151  A    between atoms: _375  and  _378
REMARK  152  A    between atoms: _381  and  _383
REMARK  153  A    between atoms: _383  and  _384
REMARK  154  A    between atoms: _383  and  _386
REMARK  155  A    between atoms: _386  and  _387
REMARK  156  A    between atoms: _387  and  _388
REMARK  157  A    between atoms: _388  and  _389
REMARK  158  A    between atoms: _398  and  _400
REMARK  159  A    between atoms: _400  and  _401
REMARK  160  A    between atoms: _400  and  _403
REMARK  161  A    between atoms: _403  and  _404
REMARK  162  A    between atoms: _407  and  _409
REMARK  163  A    between atoms: _409  and  _410
REMARK  164  A    between atoms: _409  and  _412
REMARK  165  A    between atoms: _412  and  _413
REMARK  166  A    between atoms: _416  and  _418
REMARK  167  A    between atoms: _418  and  _419
REMARK  168  A    between atoms: _421  and  _423
REMARK  169  A    between atoms: _423  and  _424
REMARK  170  A    between atoms: _426  and  _428
REMARK  171  A    between atoms: _428  and  _429
REMARK  172  A    between atoms: _428  and  _431
REMARK  173  A    between atoms: _431  and  _432
REMARK  174  A    between atoms: _435  and  _437
REMARK  175  A    between atoms: _437  and  _438
REMARK  176  A    between atoms: _440  and  _442
REMARK  177  A    between atoms: _442  and  _443
REMARK  178  A    between atoms: _445  and  _447
REMARK  179  A    between atoms: _447  and  _448
REMARK  180  A    between atoms: _447  and  _450
REMARK  181  A    between atoms: _453  and  _455
REMARK  182  A    between atoms: _455  and  _456
REMARK  183  A    between atoms: _455  and  _458
REMARK  184  A    between atoms: _458  and  _459
REMARK  185  A    between atoms: _462  and  _464
REMARK  186  A    between atoms: _464  and  _465
REMARK  187  A    between atoms: _464  and  _467
REMARK  188  A    between atoms: _467  and  _468
REMARK  189  A    between atoms: _472  and  _473
REMARK  190  A    between atoms: _478  and  _480
REMARK  191  A    between atoms: _480  and  _481
REMARK  192  A    between atoms: _480  and  _483
REMARK  193  A    between atoms: _483  and  _484
REMARK  194  A    between atoms: _487  and  _489
REMARK  195  A    between atoms: _489  and  _490
REMARK  196  A    between atoms: _489  and  _492
REMARK  197  A    between atoms: _492  and  _493
REMARK  198  A    between atoms: _498  and  _500
REMARK  199  A    between atoms: _500  and  _501
REMARK  200  A    between atoms: _500  and  _503
REMARK  201  A    between atoms: _506  and  _508
REMARK  202  A    between atoms: _508  and  _509
REMARK  203  A    between atoms: _508  and  _511
REMARK  204  A    between atoms: _511  and  _512
REMARK  205  A    between atoms: _515  and  _517
REMARK  206  A    between atoms: _517  and  _518
REMARK  207  A    between atoms: _520  and  _522
REMARK  208  A    between atoms: _522  and  _523
REMARK  209  A    between atoms: _522  and  _525
REMARK  210  A    between atoms: _525  and  _526
REMARK  211  A    between atoms: _526  and  _527
REMARK  212  A    between atoms: _527  and  _528
REMARK  213  A    between atoms: _537  and  _539
REMARK  214  A    between atoms: _539  and  _540
REMARK  215  A    between atoms: _539  and  _542
REMARK  216  A    between atoms: _542  and  _543
REMARK                            x       y       z     vdW  Elec       q    Type
REMARK                         _______ _______ _______ _____ _____    ______ ____
ROOT
ATOM      1  O   HOH     1     -13.214  16.119  32.659  0.00  0.00    +0.000 OA
ENDROOT
TORSDOF 0
REMARK  Name = ../refined-set-2016/3ggu/3ggu_pocket.pdb
REMARK  216 active torsions:
REMARK  status: ('A' for Active; 'I' for Inactive)
REMARK    1  A    between atoms: _1  and  _3
REMARK    2  A    between atoms: _3  and  _4
REMARK    3  A    between atoms: _3  and  _6
REMARK    4  A    between atoms: _6  and  _7
REMARK    5  A    between atoms: _7  and  _8
REMARK    6  A    between atoms: _8  and  _9
REMARK    7  A    between atoms: _18  and  _20
REMARK    8  A    between atoms: _20  and  _21
REMARK    9  A    between atoms: _20  and  _23
REMARK   10  A    between atoms: _23  and  _24
REMARK   11  A    between atoms: _27  and  _29
REMARK   12  A    between atoms: _29  and  _30
REMARK   13  A    between atoms: _29  and  _32
REMARK   14  A    between atoms: _32  and  _33
REMARK   15  A    between atoms: _36  and  _38
REMARK   16  A    between atoms: _38  and  _39
REMARK   17  A    between atoms: _38  and  _41
REMARK   18  A    between atoms: _41  and  _42
REMARK   19  A    between atoms: _45  and  _47
REMARK   20  A    between atoms: _47  and  _48
REMARK   21  A    between atoms: _47  and  _50
REMARK   22  A    between atoms: _50  and  _51
REMARK   23  A    between atoms: _54  and  _56
REMARK   24  A    between atoms: _56  and  _57
REMARK   25  A    between atoms: _59  and  _61
REMARK   26  A    between atoms: _61  and  _62
REMARK   27  A    between atoms: _65  and  _67
REMARK   28  A    between atoms: _67  and  _68
REMARK   29  A    between atoms: _67  and  _70
REMARK   30  A    between atoms: _70  and  _71
REMARK   31  A    between atoms: _74  and  _76
REMARK   32  A    between atoms: _76  and  _77
REMARK   33  A    between atoms: _76  and  _79
REMARK   34  A    between atoms: _79  and  _80
REMARK   35  A    between atoms: _83  and  _85
REMARK   36  A    between atoms: _85  and  _86
REMARK   37  A    between atoms: _85  and  _88
REMARK   38  A    between atoms: _88  and  _89
REMARK   39  A    between atoms: _92  and  _94
REMARK   40  A    between atoms: _94  and  _95
REMARK   41  A    between atoms: _94  and  _97
REMARK   42  A    between atoms: _100  and  _102
REMARK   43  A    between atoms: _102  and  _103
REMARK   44  A    between atoms: _102  and  _105
REMARK   45  A    between atoms: _105  and  _106
REMARK   46  A    between atoms: _106  and  _107
REMARK   47  A    between atoms: _107  and  _108
REMARK   48  A    between atoms: _117  and  _119
REMARK   49  A    between atoms: _119  and  _120
REMARK   50  A    between atoms: _119  and  _122
REMARK   51  A    between atoms: _122  and  _123
REMARK   52  A    between atoms: _126  and  _128
REMARK   53  A    between atoms: _128  and  _129
REMARK   54  A    between atoms: _128  and  _131
REMARK   55  A    between atoms: _131  and  _132
REMARK   56  A    between atoms: _135  and  _137
REMARK   57  A    between atoms: _137  and  _138
REMARK   58  A    between atoms: _140  and  _142
REMARK   59  A    between atoms: _142  and  _143
REMARK   60  A    between atoms: _145  and  _147
REMARK   61  A    between atoms: _147  and  _148
REMARK   62  A    between atoms: _147  and  _150
REMARK   63  A    between atoms: _150  and  _151
REMARK   64  A    between atoms: _154  and  _156
REMARK   65  A    between atoms: _156  and  _157
REMARK   66  A    between atoms: _159  and  _161
REMARK   67  A    between atoms: _161  and  _162
REMARK   68  A    between atoms: _164  and  _166
REMARK   69  A    between atoms: _166  and  _167
REMARK   70  A    between atoms: _166  and  _169
REMARK   71  A    between atoms: _172  and  _174
REMARK   72  A    between atoms: _174  and  _175
REMARK   73  A    between atoms: _174  and  _177
REMARK   74  A    between atoms: _180  and  _182
REMARK   75  A    between atoms: _182  and  _183
REMARK   76  A    between atoms: _182  and  _185
REMARK   77  A    between atoms: _185  and  _186
REMARK   78  A    between atoms: _190  and  _191
REMARK   79  A    between atoms: _196  and  _198
REMARK   80  A    between atoms: _198  and  _199
REMARK   81  A    between atoms: _198  and  _201
REMARK   82  A    between atoms: _201  and  _202
REMARK   83  A    between atoms: _206  and  _207
REMARK   84  A    between atoms: _212  and  _214
REMARK   85  A    between atoms: _214  and  _215
REMARK   86  A    between atoms: _214  and  _217
REMARK   87  A    between atoms: _217  and  _218
REMARK   88  A    between atoms: _221  and  _223
REMARK   89  A    between atoms: _223  and  _224
REMARK   90  A    between atoms: _223  and  _226
REMARK   91  A    between atoms: _226  and  _227
REMARK   92  A    between atoms: _232  and  _234
REMARK   93  A    between atoms: _234  and  _235
REMARK   94  A    between atoms: _234  and  _237
REMARK   95  A    between atoms: _240  and  _242
REMARK   96  A    between atoms: _242  and  _243
REMARK   97  A    between atoms: _242  and  _245
REMARK   98  A    between atoms: _245  and  _246
REMARK   99  A    between atoms: _249  and  _251
REMARK  100  A    between atoms: _251  and  _252
REMARK  101  A    between atoms: _254  and  _256
REMARK  102  A    between atoms: _256  and  _257
REMARK  103  A    between atoms: _256  and  _259
REMARK  104  A    between atoms: _259  and  _260
REMARK  105  A    between atoms: _260  and  _261
REMARK  106  A    between atoms: _261  and  _262
REMARK  107  A    between atoms: _271  and  _273
REMARK  108  A    between atoms: _273  and  _274
REMARK  109  A    between atoms: _273  and  _276
REMARK  110  A    between atoms: _276  and  _277
REMARK  111  A    between atoms: _282  and  _284
REMARK  112  A    between atoms: _284  and  _285
REMARK  113  A    between atoms: _284  and  _287
REMARK  114  A    between atoms: _287  and  _288
REMARK  115  A    between atoms: _288  and  _289
REMARK  116  A    between atoms: _289  and  _290
REMARK  117  A    between atoms: _299  and  _301
REMARK  118  A    between atoms: _301  and  _302
REMARK  119  A    between atoms: _301  and  _304
REMARK  120  A    between atoms: _304  and  _305
REMARK  121  A    between atoms: _308  and  _310
REMARK  122  A    between atoms: _310  and  _311
REMARK  123  A    between atoms: _310  and  _313
REMARK  124  A    between atoms: _313  and  _314
REMARK  125  A    between atoms: _317  and  _319
REMARK  126  A    between atoms: _319  and  _320
REMARK  127  A    between atoms: _319  and  _322
REMARK  128  A    between atoms: _322  and  _323
REMARK  129  A    between atoms: _326  and  _328
REMARK  130  A    between atoms: _328  and  _329
REMARK  131  A    between atoms: _328  and  _331
REMARK  132  A    between atoms: _331  and  _332
REMARK  133  A    between atoms: _335  and  _337
REMARK  134  A    between atoms: _337  and  _338
REMARK  135  A    between atoms: _340  and  _342
REMARK  136  A    between atoms: _342  and  _343
REMARK  137  A    between atoms: _346  and  _348
REMARK  138  A    between atoms: _348  and  _349
REMARK  139  A    between atoms: _348  and  _351
REMARK  140  A    between atoms: _351  and  _352
REMARK  141  A    between atoms: _355  and  _357
REMARK  142  A    between atoms: _357  and  _358
REMARK  143  A    between atoms: _357  and  _360
REMARK  144  A    between atoms: _360  and  _361
REMARK  145  A    between atoms: _364  and  _366
REMARK  146  A    between atoms: _366  and  _367
REMARK  147  A    between atoms: _366  and  _369
REMARK  148  A    between atoms: _369  and  _370
REMARK  149  A    between atoms: _373  and  _375
REMARK  150  A    between atoms: _375  and  _376
REMARK  151  A    between atoms: _375  and  _378
REMARK  152  A    between atoms: _381  and  _383
REMARK  153  A    between atoms: _383  and  _384
REMARK  154  A    between atoms: _383  and  _386
REMARK  155  A    between atoms: _386  and  _387
REMARK  156  A    between atoms: _387  and  _388
REMARK  157  A    between atoms: _388  and  _389
REMARK  158  A    between atoms: _398  and  _400
REMARK  159  A    between atoms: _400  and  _401
REMARK  160  A    between atoms: _400  and  _403
REMARK  161  A    between atoms: _403  and  _404
REMARK  162  A    between atoms: _407  and  _409
REMARK  163  A    between atoms: _409  and  _410
REMARK  164  A    between atoms: _409  and  _412
REMARK  165  A    between atoms: _412  and  _413
REMARK  166  A    between atoms: _416  and  _418
REMARK  167  A    between atoms: _418  and  _419
REMARK  168  A    between atoms: _421  and  _423
REMARK  169  A    between atoms: _423  and  _424
REMARK  170  A    between atoms: _426  and  _428
REMARK  171  A    between atoms: _428  and  _429
REMARK  172  A    between atoms: _428  and  _431
REMARK  173  A    between atoms: _431  and  _432
REMARK  174  A    between atoms: _435  and  _437
REMARK  175  A    between atoms: _437  and  _438
REMARK  176  A    between atoms: _440  and  _442
REMARK  177  A    between atoms: _442  and  _443
REMARK  178  A    between atoms: _445  and  _447
REMARK  179  A    between atoms: _447  and  _448
REMARK  180  A    between atoms: _447  and  _450
REMARK  181  A    between atoms: _453  and  _455
REMARK  182  A    between atoms: _455  and  _456
REMARK  183  A    between atoms: _455  and  _458
REMARK  184  A    between atoms: _458  and  _459
REMARK  185  A    between atoms: _462  and  _464
REMARK  186  A    between atoms: _464  and  _465
REMARK  187  A    between atoms: _464  and  _467
REMARK  188  A    between atoms: _467  and  _468
REMARK  189  A    between atoms: _472  and  _473
REMARK  190  A    between atoms: _478  and  _480
REMARK  191  A    between atoms: _480  and  _481
REMARK  192  A    between atoms: _480  and  _483
REMARK  193  A    between atoms: _483  and  _484
REMARK  194  A    between atoms: _487  and  _489
REMARK  195  A    between atoms: _489  and  _490
REMARK  196  A    between atoms: _489  and  _492
REMARK  197  A    between atoms: _492  and  _493
REMARK  198  A    between atoms: _498  and  _500
REMARK  199  A    between atoms: _500  and  _501
REMARK  200  A    between atoms: _500  and  _503
REMARK  201  A    between atoms: _506  and  _508
REMARK  202  A    between atoms: _508  and  _509
REMARK  203  A    between atoms: _508  and  _511
REMARK  204  A    between atoms: _511  and  _512
REMARK  205  A    between atoms: _515  and  _517
REMARK  206  A    between atoms: _517  and  _518
REMARK  207  A    between atoms: _520  and  _522
REMARK  208  A    between atoms: _522  and  _523
REMARK  209  A    between atoms: _522  and  _525
REMARK  210  A    between atoms: _525  and  _526
REMARK  211  A    between atoms: _526  and  _527
REMARK  212  A    between atoms: _527  and  _528
REMARK  213  A    between atoms: _537  and  _539
REMARK  214  A    between atoms: _539  and  _540
REMARK  215  A    between atoms: _539  and  _542
REMARK  216  A    between atoms: _542  and  _543
REMARK                            x       y       z     vdW  Elec       q    Type
REMARK                         _______ _______ _______ _____ _____    ______ ____
ROOT
ATOM      1  O   HOH     1      -7.399  19.440  21.144  0.00  0.00    +0.000 OA
ENDROOT
TORSDOF 0
REMARK  Name = ../refined-set-2016/3ggu/3ggu_pocket.pdb
REMARK  216 active torsions:
REMARK  status: ('A' for Active; 'I' for Inactive)
REMARK    1  A    between atoms: _1  and  _3
REMARK    2  A    between atoms: _3  and  _4
REMARK    3  A    between atoms: _3  and  _6
REMARK    4  A    between atoms: _6  and  _7
REMARK    5  A    between atoms: _7  and  _8
REMARK    6  A    between atoms: _8  and  _9
REMARK    7  A    between atoms: _18  and  _20
REMARK    8  A    between atoms: _20  and  _21
REMARK    9  A    between atoms: _20  and  _23
REMARK   10  A    between atoms: _23  and  _24
REMARK   11  A    between atoms: _27  and  _29
REMARK   12  A    between atoms: _29  and  _30
REMARK   13  A    between atoms: _29  and  _32
REMARK   14  A    between atoms: _32  and  _33
REMARK   15  A    between atoms: _36  and  _38
REMARK   16  A    between atoms: _38  and  _39
REMARK   17  A    between atoms: _38  and  _41
REMARK   18  A    between atoms: _41  and  _42
REMARK   19  A    between atoms: _45  and  _47
REMARK   20  A    between atoms: _47  and  _48
REMARK   21  A    between atoms: _47  and  _50
REMARK   22  A    between atoms: _50  and  _51
REMARK   23  A    between atoms: _54  and  _56
REMARK   24  A    between atoms: _56  and  _57
REMARK   25  A    between atoms: _59  and  _61
REMARK   26  A    between atoms: _61  and  _62
REMARK   27  A    between atoms: _65  and  _67
REMARK   28  A    between atoms: _67  and  _68
REMARK   29  A    between atoms: _67  and  _70
REMARK   30  A    between atoms: _70  and  _71
REMARK   31  A    between atoms: _74  and  _76
REMARK   32  A    between atoms: _76  and  _77
REMARK   33  A    between atoms: _76  and  _79
REMARK   34  A    between atoms: _79  and  _80
REMARK   35  A    between atoms: _83  and  _85
REMARK   36  A    between atoms: _85  and  _86
REMARK   37  A    between atoms: _85  and  _88
REMARK   38  A    between atoms: _88  and  _89
REMARK   39  A    between atoms: _92  and  _94
REMARK   40  A    between atoms: _94  and  _95
REMARK   41  A    between atoms: _94  and  _97
REMARK   42  A    between atoms: _100  and  _102
REMARK   43  A    between atoms: _102  and  _103
REMARK   44  A    between atoms: _102  and  _105
REMARK   45  A    between atoms: _105  and  _106
REMARK   46  A    between atoms: _106  and  _107
REMARK   47  A    between atoms: _107  and  _108
REMARK   48  A    between atoms: _117  and  _119
REMARK   49  A    between atoms: _119  and  _120
REMARK   50  A    between atoms: _119  and  _122
REMARK   51  A    between atoms: _122  and  _123
REMARK   52  A    between atoms: _126  and  _128
REMARK   53  A    between atoms: _128  and  _129
REMARK   54  A    between atoms: _128  and  _131
REMARK   55  A    between atoms: _131  and  _132
REMARK   56  A    between atoms: _135  and  _137
REMARK   57  A    between atoms: _137  and  _138
REMARK   58  A    between atoms: _140  and  _142
REMARK   59  A    between atoms: _142  and  _143
REMARK   60  A    between atoms: _145  and  _147
REMARK   61  A    between atoms: _147  and  _148
REMARK   62  A    between atoms: _147  and  _150
REMARK   63  A    between atoms: _150  and  _151
REMARK   64  A    between atoms: _154  and  _156
REMARK   65  A    between atoms: _156  and  _157
REMARK   66  A    between atoms: _159  and  _161
REMARK   67  A    between atoms: _161  and  _162
REMARK   68  A    between atoms: _164  and  _166
REMARK   69  A    between atoms: _166  and  _167
REMARK   70  A    between atoms: _166  and  _169
REMARK   71  A    between atoms: _172  and  _174
REMARK   72  A    between atoms: _174  and  _175
REMARK   73  A    between atoms: _174  and  _177
REMARK   74  A    between atoms: _180  and  _182
REMARK   75  A    between atoms: _182  and  _183
REMARK   76  A    between atoms: _182  and  _185
REMARK   77  A    between atoms: _185  and  _186
REMARK   78  A    between atoms: _190  and  _191
REMARK   79  A    between atoms: _196  and  _198
REMARK   80  A    between atoms: _198  and  _199
REMARK   81  A    between atoms: _198  and  _201
REMARK   82  A    between atoms: _201  and  _202
REMARK   83  A    between atoms: _206  and  _207
REMARK   84  A    between atoms: _212  and  _214
REMARK   85  A    between atoms: _214  and  _215
REMARK   86  A    between atoms: _214  and  _217
REMARK   87  A    between atoms: _217  and  _218
REMARK   88  A    between atoms: _221  and  _223
REMARK   89  A    between atoms: _223  and  _224
REMARK   90  A    between atoms: _223  and  _226
REMARK   91  A    between atoms: _226  and  _227
REMARK   92  A    between atoms: _232  and  _234
REMARK   93  A    between atoms: _234  and  _235
REMARK   94  A    between atoms: _234  and  _237
REMARK   95  A    between atoms: _240  and  _242
REMARK   96  A    between atoms: _242  and  _243
REMARK   97  A    between atoms: _242  and  _245
REMARK   98  A    between atoms: _245  and  _246
REMARK   99  A    between atoms: _249  and  _251
REMARK  100  A    between atoms: _251  and  _252
REMARK  101  A    between atoms: _254  and  _256
REMARK  102  A    between atoms: _256  and  _257
REMARK  103  A    between atoms: _256  and  _259
REMARK  104  A    between atoms: _259  and  _260
REMARK  105  A    between atoms: _260  and  _261
REMARK  106  A    between atoms: _261  and  _262
REMARK  107  A    between atoms: _271  and  _273
REMARK  108  A    between atoms: _273  and  _274
REMARK  109  A    between atoms: _273  and  _276
REMARK  110  A    between atoms: _276  and  _277
REMARK  111  A    between atoms: _282  and  _284
REMARK  112  A    between atoms: _284  and  _285
REMARK  113  A    between atoms: _284  and  _287
REMARK  114  A    between atoms: _287  and  _288
REMARK  115  A    between atoms: _288  and  _289
REMARK  116  A    between atoms: _289  and  _290
REMARK  117  A    between atoms: _299  and  _301
REMARK  118  A    between atoms: _301  and  _302
REMARK  119  A    between atoms: _301  and  _304
REMARK  120  A    between atoms: _304  and  _305
REMARK  121  A    between atoms: _308  and  _310
REMARK  122  A    between atoms: _310  and  _311
REMARK  123  A    between atoms: _310  and  _313
REMARK  124  A    between atoms: _313  and  _314
REMARK  125  A    between atoms: _317  and  _319
REMARK  126  A    between atoms: _319  and  _320
REMARK  127  A    between atoms: _319  and  _322
REMARK  128  A    between atoms: _322  and  _323
REMARK  129  A    between atoms: _326  and  _328
REMARK  130  A    between atoms: _328  and  _329
REMARK  131  A    between atoms: _328  and  _331
REMARK  132  A    between atoms: _331  and  _332
REMARK  133  A    between atoms: _335  and  _337
REMARK  134  A    between atoms: _337  and  _338
REMARK  135  A    between atoms: _340  and  _342
REMARK  136  A    between atoms: _342  and  _343
REMARK  137  A    between atoms: _346  and  _348
REMARK  138  A    between atoms: _348  and  _349
REMARK  139  A    between atoms: _348  and  _351
REMARK  140  A    between atoms: _351  and  _352
REMARK  141  A    between atoms: _355  and  _357
REMARK  142  A    between atoms: _357  and  _358
REMARK  143  A    between atoms: _357  and  _360
REMARK  144  A    between atoms: _360  and  _361
REMARK  145  A    between atoms: _364  and  _366
REMARK  146  A    between atoms: _366  and  _367
REMARK  147  A    between atoms: _366  and  _369
REMARK  148  A    between atoms: _369  and  _370
REMARK  149  A    between atoms: _373  and  _375
REMARK  150  A    between atoms: _375  and  _376
REMARK  151  A    between atoms: _375  and  _378
REMARK  152  A    between atoms: _381  and  _383
REMARK  153  A    between atoms: _383  and  _384
REMARK  154  A    between atoms: _383  and  _386
REMARK  155  A    between atoms: _386  and  _387
REMARK  156  A    between atoms: _387  and  _388
REMARK  157  A    between atoms: _388  and  _389
REMARK  158  A    between atoms: _398  and  _400
REMARK  159  A    between atoms: _400  and  _401
REMARK  160  A    between atoms: _400  and  _403
REMARK  161  A    between atoms: _403  and  _404
REMARK  162  A    between atoms: _407  and  _409
REMARK  163  A    between atoms: _409  and  _410
REMARK  164  A    between atoms: _409  and  _412
REMARK  165  A    between atoms: _412  and  _413
REMARK  166  A    between atoms: _416  and  _418
REMARK  167  A    between atoms: _418  and  _419
REMARK  168  A    between atoms: _421  and  _423
REMARK  169  A    between atoms: _423  and  _424
REMARK  170  A    between atoms: _426  and  _428
REMARK  171  A    between atoms: _428  and  _429
REMARK  172  A    between atoms: _428  and  _431
REMARK  173  A    between atoms: _431  and  _432
REMARK  174  A    between atoms: _435  and  _437
REMARK  175  A    between atoms: _437  and  _438
REMARK  176  A    between atoms: _440  and  _442
REMARK  177  A    between atoms: _442  and  _443
REMARK  178  A    between atoms: _445  and  _447
REMARK  179  A    between atoms: _447  and  _448
REMARK  180  A    between atoms: _447  and  _450
REMARK  181  A    between atoms: _453  and  _455
REMARK  182  A    between atoms: _455  and  _456
REMARK  183  A    between atoms: _455  and  _458
REMARK  184  A    between atoms: _458  and  _459
REMARK  185  A    between atoms: _462  and  _464
REMARK  186  A    between atoms: _464  and  _465
REMARK  187  A    between atoms: _464  and  _467
REMARK  188  A    between atoms: _467  and  _468
REMARK  189  A    between atoms: _472  and  _473
REMARK  190  A    between atoms: _478  and  _480
REMARK  191  A    between atoms: _480  and  _481
REMARK  192  A    between atoms: _480  and  _483
REMARK  193  A    between atoms: _483  and  _484
REMARK  194  A    between atoms: _487  and  _489
REMARK  195  A    between atoms: _489  and  _490
REMARK  196  A    between atoms: _489  and  _492
REMARK  197  A    between atoms: _492  and  _493
REMARK  198  A    between atoms: _498  and  _500
REMARK  199  A    between atoms: _500  and  _501
REMARK  200  A    between atoms: _500  and  _503
REMARK  201  A    between atoms: _506  and  _508
REMARK  202  A    between atoms: _508  and  _509
REMARK  203  A    between atoms: _508  and  _511
REMARK  204  A    between atoms: _511  and  _512
REMARK  205  A    between atoms: _515  and  _517
REMARK  206  A    between atoms: _517  and  _518
REMARK  207  A    between atoms: _520  and  _522
REMARK  208  A    between atoms: _522  and  _523
REMARK  209  A    between atoms: _522  and  _525
REMARK  210  A    between atoms: _525  and  _526
REMARK  211  A    between atoms: _526  and  _527
REMARK  212  A    between atoms: _527  and  _528
REMARK  213  A    between atoms: _537  and  _539
REMARK  214  A    between atoms: _539  and  _540
REMARK  215  A    between atoms: _539  and  _542
REMARK  216  A    between atoms: _542  and  _543
REMARK                            x       y       z     vdW  Elec       q    Type
REMARK                         _______ _______ _______ _____ _____    ______ ____
ROOT
ATOM      1  O   HOH     1      -8.539  19.877  39.641  0.00  0.00    +0.000 OA
ENDROOT
TORSDOF 0
REMARK  Name = ../refined-set-2016/3ggu/3ggu_pocket.pdb
REMARK  216 active torsions:
REMARK  status: ('A' for Active; 'I' for Inactive)
REMARK    1  A    between atoms: _1  and  _3
REMARK    2  A    between atoms: _3  and  _4
REMARK    3  A    between atoms: _3  and  _6
REMARK    4  A    between atoms: _6  and  _7
REMARK    5  A    between atoms: _7  and  _8
REMARK    6  A    between atoms: _8  and  _9
REMARK    7  A    between atoms: _18  and  _20
REMARK    8  A    between atoms: _20  and  _21
REMARK    9  A    between atoms: _20  and  _23
REMARK   10  A    between atoms: _23  and  _24
REMARK   11  A    between atoms: _27  and  _29
REMARK   12  A    between atoms: _29  and  _30
REMARK   13  A    between atoms: _29  and  _32
REMARK   14  A    between atoms: _32  and  _33
REMARK   15  A    between atoms: _36  and  _38
REMARK   16  A    between atoms: _38  and  _39
REMARK   17  A    between atoms: _38  and  _41
REMARK   18  A    between atoms: _41  and  _42
REMARK   19  A    between atoms: _45  and  _47
REMARK   20  A    between atoms: _47  and  _48
REMARK   21  A    between atoms: _47  and  _50
REMARK   22  A    between atoms: _50  and  _51
REMARK   23  A    between atoms: _54  and  _56
REMARK   24  A    between atoms: _56  and  _57
REMARK   25  A    between atoms: _59  and  _61
REMARK   26  A    between atoms: _61  and  _62
REMARK   27  A    between atoms: _65  and  _67
REMARK   28  A    between atoms: _67  and  _68
REMARK   29  A    between atoms: _67  and  _70
REMARK   30  A    between atoms: _70  and  _71
REMARK   31  A    between atoms: _74  and  _76
REMARK   32  A    between atoms: _76  and  _77
REMARK   33  A    between atoms: _76  and  _79
REMARK   34  A    between atoms: _79  and  _80
REMARK   35  A    between atoms: _83  and  _85
REMARK   36  A    between atoms: _85  and  _86
REMARK   37  A    between atoms: _85  and  _88
REMARK   38  A    between atoms: _88  and  _89
REMARK   39  A    between atoms: _92  and  _94
REMARK   40  A    between atoms: _94  and  _95
REMARK   41  A    between atoms: _94  and  _97
REMARK   42  A    between atoms: _100  and  _102
REMARK   43  A    between atoms: _102  and  _103
REMARK   44  A    between atoms: _102  and  _105
REMARK   45  A    between atoms: _105  and  _106
REMARK   46  A    between atoms: _106  and  _107
REMARK   47  A    between atoms: _107  and  _108
REMARK   48  A    between atoms: _117  and  _119
REMARK   49  A    between atoms: _119  and  _120
REMARK   50  A    between atoms: _119  and  _122
REMARK   51  A    between atoms: _122  and  _123
REMARK   52  A    between atoms: _126  and  _128
REMARK   53  A    between atoms: _128  and  _129
REMARK   54  A    between atoms: _128  and  _131
REMARK   55  A    between atoms: _131  and  _132
REMARK   56  A    between atoms: _135  and  _137
REMARK   57  A    between atoms: _137  and  _138
REMARK   58  A    between atoms: _140  and  _142
REMARK   59  A    between atoms: _142  and  _143
REMARK   60  A    between atoms: _145  and  _147
REMARK   61  A    between atoms: _147  and  _148
REMARK   62  A    between atoms: _147  and  _150
REMARK   63  A    between atoms: _150  and  _151
REMARK   64  A    between atoms: _154  and  _156
REMARK   65  A    between atoms: _156  and  _157
REMARK   66  A    between atoms: _159  and  _161
REMARK   67  A    between atoms: _161  and  _162
REMARK   68  A    between atoms: _164  and  _166
REMARK   69  A    between atoms: _166  and  _167
REMARK   70  A    between atoms: _166  and  _169
REMARK   71  A    between atoms: _172  and  _174
REMARK   72  A    between atoms: _174  and  _175
REMARK   73  A    between atoms: _174  and  _177
REMARK   74  A    between atoms: _180  and  _182
REMARK   75  A    between atoms: _182  and  _183
REMARK   76  A    between atoms: _182  and  _185
REMARK   77  A    between atoms: _185  and  _186
REMARK   78  A    between atoms: _190  and  _191
REMARK   79  A    between atoms: _196  and  _198
REMARK   80  A    between atoms: _198  and  _199
REMARK   81  A    between atoms: _198  and  _201
REMARK   82  A    between atoms: _201  and  _202
REMARK   83  A    between atoms: _206  and  _207
REMARK   84  A    between atoms: _212  and  _214
REMARK   85  A    between atoms: _214  and  _215
REMARK   86  A    between atoms: _214  and  _217
REMARK   87  A    between atoms: _217  and  _218
REMARK   88  A    between atoms: _221  and  _223
REMARK   89  A    between atoms: _223  and  _224
REMARK   90  A    between atoms: _223  and  _226
REMARK   91  A    between atoms: _226  and  _227
REMARK   92  A    between atoms: _232  and  _234
REMARK   93  A    between atoms: _234  and  _235
REMARK   94  A    between atoms: _234  and  _237
REMARK   95  A    between atoms: _240  and  _242
REMARK   96  A    between atoms: _242  and  _243
REMARK   97  A    between atoms: _242  and  _245
REMARK   98  A    between atoms: _245  and  _246
REMARK   99  A    between atoms: _249  and  _251
REMARK  100  A    between atoms: _251  and  _252
REMARK  101  A    between atoms: _254  and  _256
REMARK  102  A    between atoms: _256  and  _257
REMARK  103  A    between atoms: _256  and  _259
REMARK  104  A    between atoms: _259  and  _260
REMARK  105  A    between atoms: _260  and  _261
REMARK  106  A    between atoms: _261  and  _262
REMARK  107  A    between atoms: _271  and  _273
REMARK  108  A    between atoms: _273  and  _274
REMARK  109  A    between atoms: _273  and  _276
REMARK  110  A    between atoms: _276  and  _277
REMARK  111  A    between atoms: _282  and  _284
REMARK  112  A    between atoms: _284  and  _285
REMARK  113  A    between atoms: _284  and  _287
REMARK  114  A    between atoms: _287  and  _288
REMARK  115  A    between atoms: _288  and  _289
REMARK  116  A    between atoms: _289  and  _290
REMARK  117  A    between atoms: _299  and  _301
REMARK  118  A    between atoms: _301  and  _302
REMARK  119  A    between atoms: _301  and  _304
REMARK  120  A    between atoms: _304  and  _305
REMARK  121  A    between atoms: _308  and  _310
REMARK  122  A    between atoms: _310  and  _311
REMARK  123  A    between atoms: _310  and  _313
REMARK  124  A    between atoms: _313  and  _314
REMARK  125  A    between atoms: _317  and  _319
REMARK  126  A    between atoms: _319  and  _320
REMARK  127  A    between atoms: _319  and  _322
REMARK  128  A    between atoms: _322  and  _323
REMARK  129  A    between atoms: _326  and  _328
REMARK  130  A    between atoms: _328  and  _329
REMARK  131  A    between atoms: _328  and  _331
REMARK  132  A    between atoms: _331  and  _332
REMARK  133  A    between atoms: _335  and  _337
REMARK  134  A    between atoms: _337  and  _338
REMARK  135  A    between atoms: _340  and  _342
REMARK  136  A    between atoms: _342  and  _343
REMARK  137  A    between atoms: _346  and  _348
REMARK  138  A    between atoms: _348  and  _349
REMARK  139  A    between atoms: _348  and  _351
REMARK  140  A    between atoms: _351  and  _352
REMARK  141  A    between atoms: _355  and  _357
REMARK  142  A    between atoms: _357  and  _358
REMARK  143  A    between atoms: _357  and  _360
REMARK  144  A    between atoms: _360  and  _361
REMARK  145  A    between atoms: _364  and  _366
REMARK  146  A    between atoms: _366  and  _367
REMARK  147  A    between atoms: _366  and  _369
REMARK  148  A    between atoms: _369  and  _370
REMARK  149  A    between atoms: _373  and  _375
REMARK  150  A    between atoms: _375  and  _376
REMARK  151  A    between atoms: _375  and  _378
REMARK  152  A    between atoms: _381  and  _383
REMARK  153  A    between atoms: _383  and  _384
REMARK  154  A    between atoms: _383  and  _386
REMARK  155  A    between atoms: _386  and  _387
REMARK  156  A    between atoms: _387  and  _388
REMARK  157  A    between atoms: _388  and  _389
REMARK  158  A    between atoms: _398  and  _400
REMARK  159  A    between atoms: _400  and  _401
REMARK  160  A    between atoms: _400  and  _403
REMARK  161  A    between atoms: _403  and  _404
REMARK  162  A    between atoms: _407  and  _409
REMARK  163  A    between atoms: _409  and  _410
REMARK  164  A    between atoms: _409  and  _412
REMARK  165  A    between atoms: _412  and  _413
REMARK  166  A    between atoms: _416  and  _418
REMARK  167  A    between atoms: _418  and  _419
REMARK  168  A    between atoms: _421  and  _423
REMARK  169  A    between atoms: _423  and  _424
REMARK  170  A    between atoms: _426  and  _428
REMARK  171  A    between atoms: _428  and  _429
REMARK  172  A    between atoms: _428  and  _431
REMARK  173  A    between atoms: _431  and  _432
REMARK  174  A    between atoms: _435  and  _437
REMARK  175  A    between atoms: _437  and  _438
REMARK  176  A    between atoms: _440  and  _442
REMARK  177  A    between atoms: _442  and  _443
REMARK  178  A    between atoms: _445  and  _447
REMARK  179  A    between atoms: _447  and  _448
REMARK  180  A    between atoms: _447  and  _450
REMARK  181  A    between atoms: _453  and  _455
REMARK  182  A    between atoms: _455  and  _456
REMARK  183  A    between atoms: _455  and  _458
REMARK  184  A    between atoms: _458  and  _459
REMARK  185  A    between atoms: _462  and  _464
REMARK  186  A    between atoms: _464  and  _465
REMARK  187  A    between atoms: _464  and  _467
REMARK  188  A    between atoms: _467  and  _468
REMARK  189  A    between atoms: _472  and  _473
REMARK  190  A    between atoms: _478  and  _480
REMARK  191  A    between atoms: _480  and  _481
REMARK  192  A    between atoms: _480  and  _483
REMARK  193  A    between atoms: _483  and  _484
REMARK  194  A    between atoms: _487  and  _489
REMARK  195  A    between atoms: _489  and  _490
REMARK  196  A    between atoms: _489  and  _492
REMARK  197  A    between atoms: _492  and  _493
REMARK  198  A    between atoms: _498  and  _500
REMARK  199  A    between atoms: _500  and  _501
REMARK  200  A    between atoms: _500  and  _503
REMARK  201  A    between atoms: _506  and  _508
REMARK  202  A    between atoms: _508  and  _509
REMARK  203  A    between atoms: _508  and  _511
REMARK  204  A    between atoms: _511  and  _512
REMARK  205  A    between atoms: _515  and  _517
REMARK  206  A    between atoms: _517  and  _518
REMARK  207  A    between atoms: _520  and  _522
REMARK  208  A    between atoms: _522  and  _523
REMARK  209  A    between atoms: _522  and  _525
REMARK  210  A    between atoms: _525  and  _526
REMARK  211  A    between atoms: _526  and  _527
REMARK  212  A    between atoms: _527  and  _528
REMARK  213  A    between atoms: _537  and  _539
REMARK  214  A    between atoms: _539  and  _540
REMARK  215  A    between atoms: _539  and  _542
REMARK  216  A    between atoms: _542  and  _543
REMARK                            x       y       z     vdW  Elec       q    Type
REMARK                         _______ _______ _______ _____ _____    ______ ____
ROOT
ATOM      1  O   HOH     1     -16.685  19.228  31.512  0.00  0.00    +0.000 OA
ENDROOT
TORSDOF 0
REMARK  Name = ../refined-set-2016/3ggu/3ggu_pocket.pdb
REMARK  216 active torsions:
REMARK  status: ('A' for Active; 'I' for Inactive)
REMARK    1  A    between atoms: _1  and  _3
REMARK    2  A    between atoms: _3  and  _4
REMARK    3  A    between atoms: _3  and  _6
REMARK    4  A    between atoms: _6  and  _7
REMARK    5  A    between atoms: _7  and  _8
REMARK    6  A    between atoms: _8  and  _9
REMARK    7  A    between atoms: _18  and  _20
REMARK    8  A    between atoms: _20  and  _21
REMARK    9  A    between atoms: _20  and  _23
REMARK   10  A    between atoms: _23  and  _24
REMARK   11  A    between atoms: _27  and  _29
REMARK   12  A    between atoms: _29  and  _30
REMARK   13  A    between atoms: _29  and  _32
REMARK   14  A    between atoms: _32  and  _33
REMARK   15  A    between atoms: _36  and  _38
REMARK   16  A    between atoms: _38  and  _39
REMARK   17  A    between atoms: _38  and  _41
REMARK   18  A    between atoms: _41  and  _42
REMARK   19  A    between atoms: _45  and  _47
REMARK   20  A    between atoms: _47  and  _48
REMARK   21  A    between atoms: _47  and  _50
REMARK   22  A    between atoms: _50  and  _51
REMARK   23  A    between atoms: _54  and  _56
REMARK   24  A    between atoms: _56  and  _57
REMARK   25  A    between atoms: _59  and  _61
REMARK   26  A    between atoms: _61  and  _62
REMARK   27  A    between atoms: _65  and  _67
REMARK   28  A    between atoms: _67  and  _68
REMARK   29  A    between atoms: _67  and  _70
REMARK   30  A    between atoms: _70  and  _71
REMARK   31  A    between atoms: _74  and  _76
REMARK   32  A    between atoms: _76  and  _77
REMARK   33  A    between atoms: _76  and  _79
REMARK   34  A    between atoms: _79  and  _80
REMARK   35  A    between atoms: _83  and  _85
REMARK   36  A    between atoms: _85  and  _86
REMARK   37  A    between atoms: _85  and  _88
REMARK   38  A    between atoms: _88  and  _89
REMARK   39  A    between atoms: _92  and  _94
REMARK   40  A    between atoms: _94  and  _95
REMARK   41  A    between atoms: _94  and  _97
REMARK   42  A    between atoms: _100  and  _102
REMARK   43  A    between atoms: _102  and  _103
REMARK   44  A    between atoms: _102  and  _105
REMARK   45  A    between atoms: _105  and  _106
REMARK   46  A    between atoms: _106  and  _107
REMARK   47  A    between atoms: _107  and  _108
REMARK   48  A    between atoms: _117  and  _119
REMARK   49  A    between atoms: _119  and  _120
REMARK   50  A    between atoms: _119  and  _122
REMARK   51  A    between atoms: _122  and  _123
REMARK   52  A    between atoms: _126  and  _128
REMARK   53  A    between atoms: _128  and  _129
REMARK   54  A    between atoms: _128  and  _131
REMARK   55  A    between atoms: _131  and  _132
REMARK   56  A    between atoms: _135  and  _137
REMARK   57  A    between atoms: _137  and  _138
REMARK   58  A    between atoms: _140  and  _142
REMARK   59  A    between atoms: _142  and  _143
REMARK   60  A    between atoms: _145  and  _147
REMARK   61  A    between atoms: _147  and  _148
REMARK   62  A    between atoms: _147  and  _150
REMARK   63  A    between atoms: _150  and  _151
REMARK   64  A    between atoms: _154  and  _156
REMARK   65  A    between atoms: _156  and  _157
REMARK   66  A    between atoms: _159  and  _161
REMARK   67  A    between atoms: _161  and  _162
REMARK   68  A    between atoms: _164  and  _166
REMARK   69  A    between atoms: _166  and  _167
REMARK   70  A    between atoms: _166  and  _169
REMARK   71  A    between atoms: _172  and  _174
REMARK   72  A    between atoms: _174  and  _175
REMARK   73  A    between atoms: _174  and  _177
REMARK   74  A    between atoms: _180  and  _182
REMARK   75  A    between atoms: _182  and  _183
REMARK   76  A    between atoms: _182  and  _185
REMARK   77  A    between atoms: _185  and  _186
REMARK   78  A    between atoms: _190  and  _191
REMARK   79  A    between atoms: _196  and  _198
REMARK   80  A    between atoms: _198  and  _199
REMARK   81  A    between atoms: _198  and  _201
REMARK   82  A    between atoms: _201  and  _202
REMARK   83  A    between atoms: _206  and  _207
REMARK   84  A    between atoms: _212  and  _214
REMARK   85  A    between atoms: _214  and  _215
REMARK   86  A    between atoms: _214  and  _217
REMARK   87  A    between atoms: _217  and  _218
REMARK   88  A    between atoms: _221  and  _223
REMARK   89  A    between atoms: _223  and  _224
REMARK   90  A    between atoms: _223  and  _226
REMARK   91  A    between atoms: _226  and  _227
REMARK   92  A    between atoms: _232  and  _234
REMARK   93  A    between atoms: _234  and  _235
REMARK   94  A    between atoms: _234  and  _237
REMARK   95  A    between atoms: _240  and  _242
REMARK   96  A    between atoms: _242  and  _243
REMARK   97  A    between atoms: _242  and  _245
REMARK   98  A    between atoms: _245  and  _246
REMARK   99  A    between atoms: _249  and  _251
REMARK  100  A    between atoms: _251  and  _252
REMARK  101  A    between atoms: _254  and  _256
REMARK  102  A    between atoms: _256  and  _257
REMARK  103  A    between atoms: _256  and  _259
REMARK  104  A    between atoms: _259  and  _260
REMARK  105  A    between atoms: _260  and  _261
REMARK  106  A    between atoms: _261  and  _262
REMARK  107  A    between atoms: _271  and  _273
REMARK  108  A    between atoms: _273  and  _274
REMARK  109  A    between atoms: _273  and  _276
REMARK  110  A    between atoms: _276  and  _277
REMARK  111  A    between atoms: _282  and  _284
REMARK  112  A    between atoms: _284  and  _285
REMARK  113  A    between atoms: _284  and  _287
REMARK  114  A    between atoms: _287  and  _288
REMARK  115  A    between atoms: _288  and  _289
REMARK  116  A    between atoms: _289  and  _290
REMARK  117  A    between atoms: _299  and  _301
REMARK  118  A    between atoms: _301  and  _302
REMARK  119  A    between atoms: _301  and  _304
REMARK  120  A    between atoms: _304  and  _305
REMARK  121  A    between atoms: _308  and  _310
REMARK  122  A    between atoms: _310  and  _311
REMARK  123  A    between atoms: _310  and  _313
REMARK  124  A    between atoms: _313  and  _314
REMARK  125  A    between atoms: _317  and  _319
REMARK  126  A    between atoms: _319  and  _320
REMARK  127  A    between atoms: _319  and  _322
REMARK  128  A    between atoms: _322  and  _323
REMARK  129  A    between atoms: _326  and  _328
REMARK  130  A    between atoms: _328  and  _329
REMARK  131  A    between atoms: _328  and  _331
REMARK  132  A    between atoms: _331  and  _332
REMARK  133  A    between atoms: _335  and  _337
REMARK  134  A    between atoms: _337  and  _338
REMARK  135  A    between atoms: _340  and  _342
REMARK  136  A    between atoms: _342  and  _343
REMARK  137  A    between atoms: _346  and  _348
REMARK  138  A    between atoms: _348  and  _349
REMARK  139  A    between atoms: _348  and  _351
REMARK  140  A    between atoms: _351  and  _352
REMARK  141  A    between atoms: _355  and  _357
REMARK  142  A    between atoms: _357  and  _358
REMARK  143  A    between atoms: _357  and  _360
REMARK  144  A    between atoms: _360  and  _361
REMARK  145  A    between atoms: _364  and  _366
REMARK  146  A    between atoms: _366  and  _367
REMARK  147  A    between atoms: _366  and  _369
REMARK  148  A    between atoms: _369  and  _370
REMARK  149  A    between atoms: _373  and  _375
REMARK  150  A    between atoms: _375  and  _376
REMARK  151  A    between atoms: _375  and  _378
REMARK  152  A    between atoms: _381  and  _383
REMARK  153  A    between atoms: _383  and  _384
REMARK  154  A    between atoms: _383  and  _386
REMARK  155  A    between atoms: _386  and  _387
REMARK  156  A    between atoms: _387  and  _388
REMARK  157  A    between atoms: _388  and  _389
REMARK  158  A    between atoms: _398  and  _400
REMARK  159  A    between atoms: _400  and  _401
REMARK  160  A    between atoms: _400  and  _403
REMARK  161  A    between atoms: _403  and  _404
REMARK  162  A    between atoms: _407  and  _409
REMARK  163  A    between atoms: _409  and  _410
REMARK  164  A    between atoms: _409  and  _412
REMARK  165  A    between atoms: _412  and  _413
REMARK  166  A    between atoms: _416  and  _418
REMARK  167  A    between atoms: _418  and  _419
REMARK  168  A    between atoms: _421  and  _423
REMARK  169  A    between atoms: _423  and  _424
REMARK  170  A    between atoms: _426  and  _428
REMARK  171  A    between atoms: _428  and  _429
REMARK  172  A    between atoms: _428  and  _431
REMARK  173  A    between atoms: _431  and  _432
REMARK  174  A    between atoms: _435  and  _437
REMARK  175  A    between atoms: _437  and  _438
REMARK  176  A    between atoms: _440  and  _442
REMARK  177  A    between atoms: _442  and  _443
REMARK  178  A    between atoms: _445  and  _447
REMARK  179  A    between atoms: _447  and  _448
REMARK  180  A    between atoms: _447  and  _450
REMARK  181  A    between atoms: _453  and  _455
REMARK  182  A    between atoms: _455  and  _456
REMARK  183  A    between atoms: _455  and  _458
REMARK  184  A    between atoms: _458  and  _459
REMARK  185  A    between atoms: _462  and  _464
REMARK  186  A    between atoms: _464  and  _465
REMARK  187  A    between atoms: _464  and  _467
REMARK  188  A    between atoms: _467  and  _468
REMARK  189  A    between atoms: _472  and  _473
REMARK  190  A    between atoms: _478  and  _480
REMARK  191  A    between atoms: _480  and  _481
REMARK  192  A    between atoms: _480  and  _483
REMARK  193  A    between atoms: _483  and  _484
REMARK  194  A    between atoms: _487  and  _489
REMARK  195  A    between atoms: _489  and  _490
REMARK  196  A    between atoms: _489  and  _492
REMARK  197  A    between atoms: _492  and  _493
REMARK  198  A    between atoms: _498  and  _500
REMARK  199  A    between atoms: _500  and  _501
REMARK  200  A    between atoms: _500  and  _503
REMARK  201  A    between atoms: _506  and  _508
REMARK  202  A    between atoms: _508  and  _509
REMARK  203  A    between atoms: _508  and  _511
REMARK  204  A    between atoms: _511  and  _512
REMARK  205  A    between atoms: _515  and  _517
REMARK  206  A    between atoms: _517  and  _518
REMARK  207  A    between atoms: _520  and  _522
REMARK  208  A    between atoms: _522  and  _523
REMARK  209  A    between atoms: _522  and  _525
REMARK  210  A    between atoms: _525  and  _526
REMARK  211  A    between atoms: _526  and  _527
REMARK  212  A    between atoms: _527  and  _528
REMARK  213  A    between atoms: _537  and  _539
REMARK  214  A    between atoms: _539  and  _540
REMARK  215  A    between atoms: _539  and  _542
REMARK  216  A    between atoms: _542  and  _543
REMARK                            x       y       z     vdW  Elec       q    Type
REMARK                         _______ _______ _______ _____ _____    ______ ____
ROOT
ATOM      1  O   HOH     1     -13.828  15.882  39.399  0.00  0.00    +0.000 OA
ENDROOT
TORSDOF 0
REMARK  Name = ../refined-set-2016/3ggu/3ggu_pocket.pdb
REMARK  216 active torsions:
REMARK  status: ('A' for Active; 'I' for Inactive)
REMARK    1  A    between atoms: _1  and  _3
REMARK    2  A    between atoms: _3  and  _4
REMARK    3  A    between atoms: _3  and  _6
REMARK    4  A    between atoms: _6  and  _7
REMARK    5  A    between atoms: _7  and  _8
REMARK    6  A    between atoms: _8  and  _9
REMARK    7  A    between atoms: _18  and  _20
REMARK    8  A    between atoms: _20  and  _21
REMARK    9  A    between atoms: _20  and  _23
REMARK   10  A    between atoms: _23  and  _24
REMARK   11  A    between atoms: _27  and  _29
REMARK   12  A    between atoms: _29  and  _30
REMARK   13  A    between atoms: _29  and  _32
REMARK   14  A    between atoms: _32  and  _33
REMARK   15  A    between atoms: _36  and  _38
REMARK   16  A    between atoms: _38  and  _39
REMARK   17  A    between atoms: _38  and  _41
REMARK   18  A    between atoms: _41  and  _42
REMARK   19  A    between atoms: _45  and  _47
REMARK   20  A    between atoms: _47  and  _48
REMARK   21  A    between atoms: _47  and  _50
REMARK   22  A    between atoms: _50  and  _51
REMARK   23  A    between atoms: _54  and  _56
REMARK   24  A    between atoms: _56  and  _57
REMARK   25  A    between atoms: _59  and  _61
REMARK   26  A    between atoms: _61  and  _62
REMARK   27  A    between atoms: _65  and  _67
REMARK   28  A    between atoms: _67  and  _68
REMARK   29  A    between atoms: _67  and  _70
REMARK   30  A    between atoms: _70  and  _71
REMARK   31  A    between atoms: _74  and  _76
REMARK   32  A    between atoms: _76  and  _77
REMARK   33  A    between atoms: _76  and  _79
REMARK   34  A    between atoms: _79  and  _80
REMARK   35  A    between atoms: _83  and  _85
REMARK   36  A    between atoms: _85  and  _86
REMARK   37  A    between atoms: _85  and  _88
REMARK   38  A    between atoms: _88  and  _89
REMARK   39  A    between atoms: _92  and  _94
REMARK   40  A    between atoms: _94  and  _95
REMARK   41  A    between atoms: _94  and  _97
REMARK   42  A    between atoms: _100  and  _102
REMARK   43  A    between atoms: _102  and  _103
REMARK   44  A    between atoms: _102  and  _105
REMARK   45  A    between atoms: _105  and  _106
REMARK   46  A    between atoms: _106  and  _107
REMARK   47  A    between atoms: _107  and  _108
REMARK   48  A    between atoms: _117  and  _119
REMARK   49  A    between atoms: _119  and  _120
REMARK   50  A    between atoms: _119  and  _122
REMARK   51  A    between atoms: _122  and  _123
REMARK   52  A    between atoms: _126  and  _128
REMARK   53  A    between atoms: _128  and  _129
REMARK   54  A    between atoms: _128  and  _131
REMARK   55  A    between atoms: _131  and  _132
REMARK   56  A    between atoms: _135  and  _137
REMARK   57  A    between atoms: _137  and  _138
REMARK   58  A    between atoms: _140  and  _142
REMARK   59  A    between atoms: _142  and  _143
REMARK   60  A    between atoms: _145  and  _147
REMARK   61  A    between atoms: _147  and  _148
REMARK   62  A    between atoms: _147  and  _150
REMARK   63  A    between atoms: _150  and  _151
REMARK   64  A    between atoms: _154  and  _156
REMARK   65  A    between atoms: _156  and  _157
REMARK   66  A    between atoms: _159  and  _161
REMARK   67  A    between atoms: _161  and  _162
REMARK   68  A    between atoms: _164  and  _166
REMARK   69  A    between atoms: _166  and  _167
REMARK   70  A    between atoms: _166  and  _169
REMARK   71  A    between atoms: _172  and  _174
REMARK   72  A    between atoms: _174  and  _175
REMARK   73  A    between atoms: _174  and  _177
REMARK   74  A    between atoms: _180  and  _182
REMARK   75  A    between atoms: _182  and  _183
REMARK   76  A    between atoms: _182  and  _185
REMARK   77  A    between atoms: _185  and  _186
REMARK   78  A    between atoms: _190  and  _191
REMARK   79  A    between atoms: _196  and  _198
REMARK   80  A    between atoms: _198  and  _199
REMARK   81  A    between atoms: _198  and  _201
REMARK   82  A    between atoms: _201  and  _202
REMARK   83  A    between atoms: _206  and  _207
REMARK   84  A    between atoms: _212  and  _214
REMARK   85  A    between atoms: _214  and  _215
REMARK   86  A    between atoms: _214  and  _217
REMARK   87  A    between atoms: _217  and  _218
REMARK   88  A    between atoms: _221  and  _223
REMARK   89  A    between atoms: _223  and  _224
REMARK   90  A    between atoms: _223  and  _226
REMARK   91  A    between atoms: _226  and  _227
REMARK   92  A    between atoms: _232  and  _234
REMARK   93  A    between atoms: _234  and  _235
REMARK   94  A    between atoms: _234  and  _237
REMARK   95  A    between atoms: _240  and  _242
REMARK   96  A    between atoms: _242  and  _243
REMARK   97  A    between atoms: _242  and  _245
REMARK   98  A    between atoms: _245  and  _246
REMARK   99  A    between atoms: _249  and  _251
REMARK  100  A    between atoms: _251  and  _252
REMARK  101  A    between atoms: _254  and  _256
REMARK  102  A    between atoms: _256  and  _257
REMARK  103  A    between atoms: _256  and  _259
REMARK  104  A    between atoms: _259  and  _260
REMARK  105  A    between atoms: _260  and  _261
REMARK  106  A    between atoms: _261  and  _262
REMARK  107  A    between atoms: _271  and  _273
REMARK  108  A    between atoms: _273  and  _274
REMARK  109  A    between atoms: _273  and  _276
REMARK  110  A    between atoms: _276  and  _277
REMARK  111  A    between atoms: _282  and  _284
REMARK  112  A    between atoms: _284  and  _285
REMARK  113  A    between atoms: _284  and  _287
REMARK  114  A    between atoms: _287  and  _288
REMARK  115  A    between atoms: _288  and  _289
REMARK  116  A    between atoms: _289  and  _290
REMARK  117  A    between atoms: _299  and  _301
REMARK  118  A    between atoms: _301  and  _302
REMARK  119  A    between atoms: _301  and  _304
REMARK  120  A    between atoms: _304  and  _305
REMARK  121  A    between atoms: _308  and  _310
REMARK  122  A    between atoms: _310  and  _311
REMARK  123  A    between atoms: _310  and  _313
REMARK  124  A    between atoms: _313  and  _314
REMARK  125  A    between atoms: _317  and  _319
REMARK  126  A    between atoms: _319  and  _320
REMARK  127  A    between atoms: _319  and  _322
REMARK  128  A    between atoms: _322  and  _323
REMARK  129  A    between atoms: _326  and  _328
REMARK  130  A    between atoms: _328  and  _329
REMARK  131  A    between atoms: _328  and  _331
REMARK  132  A    between atoms: _331  and  _332
REMARK  133  A    between atoms: _335  and  _337
REMARK  134  A    between atoms: _337  and  _338
REMARK  135  A    between atoms: _340  and  _342
REMARK  136  A    between atoms: _342  and  _343
REMARK  137  A    between atoms: _346  and  _348
REMARK  138  A    between atoms: _348  and  _349
REMARK  139  A    between atoms: _348  and  _351
REMARK  140  A    between atoms: _351  and  _352
REMARK  141  A    between atoms: _355  and  _357
REMARK  142  A    between atoms: _357  and  _358
REMARK  143  A    between atoms: _357  and  _360
REMARK  144  A    between atoms: _360  and  _361
REMARK  145  A    between atoms: _364  and  _366
REMARK  146  A    between atoms: _366  and  _367
REMARK  147  A    between atoms: _366  and  _369
REMARK  148  A    between atoms: _369  and  _370
REMARK  149  A    between atoms: _373  and  _375
REMARK  150  A    between atoms: _375  and  _376
REMARK  151  A    between atoms: _375  and  _378
REMARK  152  A    between atoms: _381  and  _383
REMARK  153  A    between atoms: _383  and  _384
REMARK  154  A    between atoms: _383  and  _386
REMARK  155  A    between atoms: _386  and  _387
REMARK  156  A    between atoms: _387  and  _388
REMARK  157  A    between atoms: _388  and  _389
REMARK  158  A    between atoms: _398  and  _400
REMARK  159  A    between atoms: _400  and  _401
REMARK  160  A    between atoms: _400  and  _403
REMARK  161  A    between atoms: _403  and  _404
REMARK  162  A    between atoms: _407  and  _409
REMARK  163  A    between atoms: _409  and  _410
REMARK  164  A    between atoms: _409  and  _412
REMARK  165  A    between atoms: _412  and  _413
REMARK  166  A    between atoms: _416  and  _418
REMARK  167  A    between atoms: _418  and  _419
REMARK  168  A    between atoms: _421  and  _423
REMARK  169  A    between atoms: _423  and  _424
REMARK  170  A    between atoms: _426  and  _428
REMARK  171  A    between atoms: _428  and  _429
REMARK  172  A    between atoms: _428  and  _431
REMARK  173  A    between atoms: _431  and  _432
REMARK  174  A    between atoms: _435  and  _437
REMARK  175  A    between atoms: _437  and  _438
REMARK  176  A    between atoms: _440  and  _442
REMARK  177  A    between atoms: _442  and  _443
REMARK  178  A    between atoms: _445  and  _447
REMARK  179  A    between atoms: _447  and  _448
REMARK  180  A    between atoms: _447  and  _450
REMARK  181  A    between atoms: _453  and  _455
REMARK  182  A    between atoms: _455  and  _456
REMARK  183  A    between atoms: _455  and  _458
REMARK  184  A    between atoms: _458  and  _459
REMARK  185  A    between atoms: _462  and  _464
REMARK  186  A    between atoms: _464  and  _465
REMARK  187  A    between atoms: _464  and  _467
REMARK  188  A    between atoms: _467  and  _468
REMARK  189  A    between atoms: _472  and  _473
REMARK  190  A    between atoms: _478  and  _480
REMARK  191  A    between atoms: _480  and  _481
REMARK  192  A    between atoms: _480  and  _483
REMARK  193  A    between atoms: _483  and  _484
REMARK  194  A    between atoms: _487  and  _489
REMARK  195  A    between atoms: _489  and  _490
REMARK  196  A    between atoms: _489  and  _492
REMARK  197  A    between atoms: _492  and  _493
REMARK  198  A    between atoms: _498  and  _500
REMARK  199  A    between atoms: _500  and  _501
REMARK  200  A    between atoms: _500  and  _503
REMARK  201  A    between atoms: _506  and  _508
REMARK  202  A    between atoms: _508  and  _509
REMARK  203  A    between atoms: _508  and  _511
REMARK  204  A    between atoms: _511  and  _512
REMARK  205  A    between atoms: _515  and  _517
REMARK  206  A    between atoms: _517  and  _518
REMARK  207  A    between atoms: _520  and  _522
REMARK  208  A    between atoms: _522  and  _523
REMARK  209  A    between atoms: _522  and  _525
REMARK  210  A    between atoms: _525  and  _526
REMARK  211  A    between atoms: _526  and  _527
REMARK  212  A    between atoms: _527  and  _528
REMARK  213  A    between atoms: _537  and  _539
REMARK  214  A    between atoms: _539  and  _540
REMARK  215  A    between atoms: _539  and  _542
REMARK  216  A    between atoms: _542  and  _543
REMARK                            x       y       z     vdW  Elec       q    Type
REMARK                         _______ _______ _______ _____ _____    ______ ____
ROOT
ATOM      1  O   HOH     1     -11.259  11.264  35.062  0.00  0.00    +0.000 OA
ENDROOT
TORSDOF 0
REMARK  Name = ../refined-set-2016/3ggu/3ggu_pocket.pdb
REMARK  216 active torsions:
REMARK  status: ('A' for Active; 'I' for Inactive)
REMARK    1  A    between atoms: _1  and  _3
REMARK    2  A    between atoms: _3  and  _4
REMARK    3  A    between atoms: _3  and  _6
REMARK    4  A    between atoms: _6  and  _7
REMARK    5  A    between atoms: _7  and  _8
REMARK    6  A    between atoms: _8  and  _9
REMARK    7  A    between atoms: _18  and  _20
REMARK    8  A    between atoms: _20  and  _21
REMARK    9  A    between atoms: _20  and  _23
REMARK   10  A    between atoms: _23  and  _24
REMARK   11  A    between atoms: _27  and  _29
REMARK   12  A    between atoms: _29  and  _30
REMARK   13  A    between atoms: _29  and  _32
REMARK   14  A    between atoms: _32  and  _33
REMARK   15  A    between atoms: _36  and  _38
REMARK   16  A    between atoms: _38  and  _39
REMARK   17  A    between atoms: _38  and  _41
REMARK   18  A    between atoms: _41  and  _42
REMARK   19  A    between atoms: _45  and  _47
REMARK   20  A    between atoms: _47  and  _48
REMARK   21  A    between atoms: _47  and  _50
REMARK   22  A    between atoms: _50  and  _51
REMARK   23  A    between atoms: _54  and  _56
REMARK   24  A    between atoms: _56  and  _57
REMARK   25  A    between atoms: _59  and  _61
REMARK   26  A    between atoms: _61  and  _62
REMARK   27  A    between atoms: _65  and  _67
REMARK   28  A    between atoms: _67  and  _68
REMARK   29  A    between atoms: _67  and  _70
REMARK   30  A    between atoms: _70  and  _71
REMARK   31  A    between atoms: _74  and  _76
REMARK   32  A    between atoms: _76  and  _77
REMARK   33  A    between atoms: _76  and  _79
REMARK   34  A    between atoms: _79  and  _80
REMARK   35  A    between atoms: _83  and  _85
REMARK   36  A    between atoms: _85  and  _86
REMARK   37  A    between atoms: _85  and  _88
REMARK   38  A    between atoms: _88  and  _89
REMARK   39  A    between atoms: _92  and  _94
REMARK   40  A    between atoms: _94  and  _95
REMARK   41  A    between atoms: _94  and  _97
REMARK   42  A    between atoms: _100  and  _102
REMARK   43  A    between atoms: _102  and  _103
REMARK   44  A    between atoms: _102  and  _105
REMARK   45  A    between atoms: _105  and  _106
REMARK   46  A    between atoms: _106  and  _107
REMARK   47  A    between atoms: _107  and  _108
REMARK   48  A    between atoms: _117  and  _119
REMARK   49  A    between atoms: _119  and  _120
REMARK   50  A    between atoms: _119  and  _122
REMARK   51  A    between atoms: _122  and  _123
REMARK   52  A    between atoms: _126  and  _128
REMARK   53  A    between atoms: _128  and  _129
REMARK   54  A    between atoms: _128  and  _131
REMARK   55  A    between atoms: _131  and  _132
REMARK   56  A    between atoms: _135  and  _137
REMARK   57  A    between atoms: _137  and  _138
REMARK   58  A    between atoms: _140  and  _142
REMARK   59  A    between atoms: _142  and  _143
REMARK   60  A    between atoms: _145  and  _147
REMARK   61  A    between atoms: _147  and  _148
REMARK   62  A    between atoms: _147  and  _150
REMARK   63  A    between atoms: _150  and  _151
REMARK   64  A    between atoms: _154  and  _156
REMARK   65  A    between atoms: _156  and  _157
REMARK   66  A    between atoms: _159  and  _161
REMARK   67  A    between atoms: _161  and  _162
REMARK   68  A    between atoms: _164  and  _166
REMARK   69  A    between atoms: _166  and  _167
REMARK   70  A    between atoms: _166  and  _169
REMARK   71  A    between atoms: _172  and  _174
REMARK   72  A    between atoms: _174  and  _175
REMARK   73  A    between atoms: _174  and  _177
REMARK   74  A    between atoms: _180  and  _182
REMARK   75  A    between atoms: _182  and  _183
REMARK   76  A    between atoms: _182  and  _185
REMARK   77  A    between atoms: _185  and  _186
REMARK   78  A    between atoms: _190  and  _191
REMARK   79  A    between atoms: _196  and  _198
REMARK   80  A    between atoms: _198  and  _199
REMARK   81  A    between atoms: _198  and  _201
REMARK   82  A    between atoms: _201  and  _202
REMARK   83  A    between atoms: _206  and  _207
REMARK   84  A    between atoms: _212  and  _214
REMARK   85  A    between atoms: _214  and  _215
REMARK   86  A    between atoms: _214  and  _217
REMARK   87  A    between atoms: _217  and  _218
REMARK   88  A    between atoms: _221  and  _223
REMARK   89  A    between atoms: _223  and  _224
REMARK   90  A    between atoms: _223  and  _226
REMARK   91  A    between atoms: _226  and  _227
REMARK   92  A    between atoms: _232  and  _234
REMARK   93  A    between atoms: _234  and  _235
REMARK   94  A    between atoms: _234  and  _237
REMARK   95  A    between atoms: _240  and  _242
REMARK   96  A    between atoms: _242  and  _243
REMARK   97  A    between atoms: _242  and  _245
REMARK   98  A    between atoms: _245  and  _246
REMARK   99  A    between atoms: _249  and  _251
REMARK  100  A    between atoms: _251  and  _252
REMARK  101  A    between atoms: _254  and  _256
REMARK  102  A    between atoms: _256  and  _257
REMARK  103  A    between atoms: _256  and  _259
REMARK  104  A    between atoms: _259  and  _260
REMARK  105  A    between atoms: _260  and  _261
REMARK  106  A    between atoms: _261  and  _262
REMARK  107  A    between atoms: _271  and  _273
REMARK  108  A    between atoms: _273  and  _274
REMARK  109  A    between atoms: _273  and  _276
REMARK  110  A    between atoms: _276  and  _277
REMARK  111  A    between atoms: _282  and  _284
REMARK  112  A    between atoms: _284  and  _285
REMARK  113  A    between atoms: _284  and  _287
REMARK  114  A    between atoms: _287  and  _288
REMARK  115  A    between atoms: _288  and  _289
REMARK  116  A    between atoms: _289  and  _290
REMARK  117  A    between atoms: _299  and  _301
REMARK  118  A    between atoms: _301  and  _302
REMARK  119  A    between atoms: _301  and  _304
REMARK  120  A    between atoms: _304  and  _305
REMARK  121  A    between atoms: _308  and  _310
REMARK  122  A    between atoms: _310  and  _311
REMARK  123  A    between atoms: _310  and  _313
REMARK  124  A    between atoms: _313  and  _314
REMARK  125  A    between atoms: _317  and  _319
REMARK  126  A    between atoms: _319  and  _320
REMARK  127  A    between atoms: _319  and  _322
REMARK  128  A    between atoms: _322  and  _323
REMARK  129  A    between atoms: _326  and  _328
REMARK  130  A    between atoms: _328  and  _329
REMARK  131  A    between atoms: _328  and  _331
REMARK  132  A    between atoms: _331  and  _332
REMARK  133  A    between atoms: _335  and  _337
REMARK  134  A    between atoms: _337  and  _338
REMARK  135  A    between atoms: _340  and  _342
REMARK  136  A    between atoms: _342  and  _343
REMARK  137  A    between atoms: _346  and  _348
REMARK  138  A    between atoms: _348  and  _349
REMARK  139  A    between atoms: _348  and  _351
REMARK  140  A    between atoms: _351  and  _352
REMARK  141  A    between atoms: _355  and  _357
REMARK  142  A    between atoms: _357  and  _358
REMARK  143  A    between atoms: _357  and  _360
REMARK  144  A    between atoms: _360  and  _361
REMARK  145  A    between atoms: _364  and  _366
REMARK  146  A    between atoms: _366  and  _367
REMARK  147  A    between atoms: _366  and  _369
REMARK  148  A    between atoms: _369  and  _370
REMARK  149  A    between atoms: _373  and  _375
REMARK  150  A    between atoms: _375  and  _376
REMARK  151  A    between atoms: _375  and  _378
REMARK  152  A    between atoms: _381  and  _383
REMARK  153  A    between atoms: _383  and  _384
REMARK  154  A    between atoms: _383  and  _386
REMARK  155  A    between atoms: _386  and  _387
REMARK  156  A    between atoms: _387  and  _388
REMARK  157  A    between atoms: _388  and  _389
REMARK  158  A    between atoms: _398  and  _400
REMARK  159  A    between atoms: _400  and  _401
REMARK  160  A    between atoms: _400  and  _403
REMARK  161  A    between atoms: _403  and  _404
REMARK  162  A    between atoms: _407  and  _409
REMARK  163  A    between atoms: _409  and  _410
REMARK  164  A    between atoms: _409  and  _412
REMARK  165  A    between atoms: _412  and  _413
REMARK  166  A    between atoms: _416  and  _418
REMARK  167  A    between atoms: _418  and  _419
REMARK  168  A    between atoms: _421  and  _423
REMARK  169  A    between atoms: _423  and  _424
REMARK  170  A    between atoms: _426  and  _428
REMARK  171  A    between atoms: _428  and  _429
REMARK  172  A    between atoms: _428  and  _431
REMARK  173  A    between atoms: _431  and  _432
REMARK  174  A    between atoms: _435  and  _437
REMARK  175  A    between atoms: _437  and  _438
REMARK  176  A    between atoms: _440  and  _442
REMARK  177  A    between atoms: _442  and  _443
REMARK  178  A    between atoms: _445  and  _447
REMARK  179  A    between atoms: _447  and  _448
REMARK  180  A    between atoms: _447  and  _450
REMARK  181  A    between atoms: _453  and  _455
REMARK  182  A    between atoms: _455  and  _456
REMARK  183  A    between atoms: _455  and  _458
REMARK  184  A    between atoms: _458  and  _459
REMARK  185  A    between atoms: _462  and  _464
REMARK  186  A    between atoms: _464  and  _465
REMARK  187  A    between atoms: _464  and  _467
REMARK  188  A    between atoms: _467  and  _468
REMARK  189  A    between atoms: _472  and  _473
REMARK  190  A    between atoms: _478  and  _480
REMARK  191  A    between atoms: _480  and  _481
REMARK  192  A    between atoms: _480  and  _483
REMARK  193  A    between atoms: _483  and  _484
REMARK  194  A    between atoms: _487  and  _489
REMARK  195  A    between atoms: _489  and  _490
REMARK  196  A    between atoms: _489  and  _492
REMARK  197  A    between atoms: _492  and  _493
REMARK  198  A    between atoms: _498  and  _500
REMARK  199  A    between atoms: _500  and  _501
REMARK  200  A    between atoms: _500  and  _503
REMARK  201  A    between atoms: _506  and  _508
REMARK  202  A    between atoms: _508  and  _509
REMARK  203  A    between atoms: _508  and  _511
REMARK  204  A    between atoms: _511  and  _512
REMARK  205  A    between atoms: _515  and  _517
REMARK  206  A    between atoms: _517  and  _518
REMARK  207  A    between atoms: _520  and  _522
REMARK  208  A    between atoms: _522  and  _523
REMARK  209  A    between atoms: _522  and  _525
REMARK  210  A    between atoms: _525  and  _526
REMARK  211  A    between atoms: _526  and  _527
REMARK  212  A    between atoms: _527  and  _528
REMARK  213  A    between atoms: _537  and  _539
REMARK  214  A    between atoms: _539  and  _540
REMARK  215  A    between atoms: _539  and  _542
REMARK  216  A    between atoms: _542  and  _543
REMARK                            x       y       z     vdW  Elec       q    Type
REMARK                         _______ _______ _______ _____ _____    ______ ____
ROOT
ATOM      1  O   HOH     1     -14.873  14.177  37.428  0.00  0.00    +0.000 OA
ENDROOT
TORSDOF 0
REMARK  Name = ../refined-set-2016/3ggu/3ggu_pocket.pdb
REMARK  216 active torsions:
REMARK  status: ('A' for Active; 'I' for Inactive)
REMARK    1  A    between atoms: _1  and  _3
REMARK    2  A    between atoms: _3  and  _4
REMARK    3  A    between atoms: _3  and  _6
REMARK    4  A    between atoms: _6  and  _7
REMARK    5  A    between atoms: _7  and  _8
REMARK    6  A    between atoms: _8  and  _9
REMARK    7  A    between atoms: _18  and  _20
REMARK    8  A    between atoms: _20  and  _21
REMARK    9  A    between atoms: _20  and  _23
REMARK   10  A    between atoms: _23  and  _24
REMARK   11  A    between atoms: _27  and  _29
REMARK   12  A    between atoms: _29  and  _30
REMARK   13  A    between atoms: _29  and  _32
REMARK   14  A    between atoms: _32  and  _33
REMARK   15  A    between atoms: _36  and  _38
REMARK   16  A    between atoms: _38  and  _39
REMARK   17  A    between atoms: _38  and  _41
REMARK   18  A    between atoms: _41  and  _42
REMARK   19  A    between atoms: _45  and  _47
REMARK   20  A    between atoms: _47  and  _48
REMARK   21  A    between atoms: _47  and  _50
REMARK   22  A    between atoms: _50  and  _51
REMARK   23  A    between atoms: _54  and  _56
REMARK   24  A    between atoms: _56  and  _57
REMARK   25  A    between atoms: _59  and  _61
REMARK   26  A    between atoms: _61  and  _62
REMARK   27  A    between atoms: _65  and  _67
REMARK   28  A    between atoms: _67  and  _68
REMARK   29  A    between atoms: _67  and  _70
REMARK   30  A    between atoms: _70  and  _71
REMARK   31  A    between atoms: _74  and  _76
REMARK   32  A    between atoms: _76  and  _77
REMARK   33  A    between atoms: _76  and  _79
REMARK   34  A    between atoms: _79  and  _80
REMARK   35  A    between atoms: _83  and  _85
REMARK   36  A    between atoms: _85  and  _86
REMARK   37  A    between atoms: _85  and  _88
REMARK   38  A    between atoms: _88  and  _89
REMARK   39  A    between atoms: _92  and  _94
REMARK   40  A    between atoms: _94  and  _95
REMARK   41  A    between atoms: _94  and  _97
REMARK   42  A    between atoms: _100  and  _102
REMARK   43  A    between atoms: _102  and  _103
REMARK   44  A    between atoms: _102  and  _105
REMARK   45  A    between atoms: _105  and  _106
REMARK   46  A    between atoms: _106  and  _107
REMARK   47  A    between atoms: _107  and  _108
REMARK   48  A    between atoms: _117  and  _119
REMARK   49  A    between atoms: _119  and  _120
REMARK   50  A    between atoms: _119  and  _122
REMARK   51  A    between atoms: _122  and  _123
REMARK   52  A    between atoms: _126  and  _128
REMARK   53  A    between atoms: _128  and  _129
REMARK   54  A    between atoms: _128  and  _131
REMARK   55  A    between atoms: _131  and  _132
REMARK   56  A    between atoms: _135  and  _137
REMARK   57  A    between atoms: _137  and  _138
REMARK   58  A    between atoms: _140  and  _142
REMARK   59  A    between atoms: _142  and  _143
REMARK   60  A    between atoms: _145  and  _147
REMARK   61  A    between atoms: _147  and  _148
REMARK   62  A    between atoms: _147  and  _150
REMARK   63  A    between atoms: _150  and  _151
REMARK   64  A    between atoms: _154  and  _156
REMARK   65  A    between atoms: _156  and  _157
REMARK   66  A    between atoms: _159  and  _161
REMARK   67  A    between atoms: _161  and  _162
REMARK   68  A    between atoms: _164  and  _166
REMARK   69  A    between atoms: _166  and  _167
REMARK   70  A    between atoms: _166  and  _169
REMARK   71  A    between atoms: _172  and  _174
REMARK   72  A    between atoms: _174  and  _175
REMARK   73  A    between atoms: _174  and  _177
REMARK   74  A    between atoms: _180  and  _182
REMARK   75  A    between atoms: _182  and  _183
REMARK   76  A    between atoms: _182  and  _185
REMARK   77  A    between atoms: _185  and  _186
REMARK   78  A    between atoms: _190  and  _191
REMARK   79  A    between atoms: _196  and  _198
REMARK   80  A    between atoms: _198  and  _199
REMARK   81  A    between atoms: _198  and  _201
REMARK   82  A    between atoms: _201  and  _202
REMARK   83  A    between atoms: _206  and  _207
REMARK   84  A    between atoms: _212  and  _214
REMARK   85  A    between atoms: _214  and  _215
REMARK   86  A    between atoms: _214  and  _217
REMARK   87  A    between atoms: _217  and  _218
REMARK   88  A    between atoms: _221  and  _223
REMARK   89  A    between atoms: _223  and  _224
REMARK   90  A    between atoms: _223  and  _226
REMARK   91  A    between atoms: _226  and  _227
REMARK   92  A    between atoms: _232  and  _234
REMARK   93  A    between atoms: _234  and  _235
REMARK   94  A    between atoms: _234  and  _237
REMARK   95  A    between atoms: _240  and  _242
REMARK   96  A    between atoms: _242  and  _243
REMARK   97  A    between atoms: _242  and  _245
REMARK   98  A    between atoms: _245  and  _246
REMARK   99  A    between atoms: _249  and  _251
REMARK  100  A    between atoms: _251  and  _252
REMARK  101  A    between atoms: _254  and  _256
REMARK  102  A    between atoms: _256  and  _257
REMARK  103  A    between atoms: _256  and  _259
REMARK  104  A    between atoms: _259  and  _260
REMARK  105  A    between atoms: _260  and  _261
REMARK  106  A    between atoms: _261  and  _262
REMARK  107  A    between atoms: _271  and  _273
REMARK  108  A    between atoms: _273  and  _274
REMARK  109  A    between atoms: _273  and  _276
REMARK  110  A    between atoms: _276  and  _277
REMARK  111  A    between atoms: _282  and  _284
REMARK  112  A    between atoms: _284  and  _285
REMARK  113  A    between atoms: _284  and  _287
REMARK  114  A    between atoms: _287  and  _288
REMARK  115  A    between atoms: _288  and  _289
REMARK  116  A    between atoms: _289  and  _290
REMARK  117  A    between atoms: _299  and  _301
REMARK  118  A    between atoms: _301  and  _302
REMARK  119  A    between atoms: _301  and  _304
REMARK  120  A    between atoms: _304  and  _305
REMARK  121  A    between atoms: _308  and  _310
REMARK  122  A    between atoms: _310  and  _311
REMARK  123  A    between atoms: _310  and  _313
REMARK  124  A    between atoms: _313  and  _314
REMARK  125  A    between atoms: _317  and  _319
REMARK  126  A    between atoms: _319  and  _320
REMARK  127  A    between atoms: _319  and  _322
REMARK  128  A    between atoms: _322  and  _323
REMARK  129  A    between atoms: _326  and  _328
REMARK  130  A    between atoms: _328  and  _329
REMARK  131  A    between atoms: _328  and  _331
REMARK  132  A    between atoms: _331  and  _332
REMARK  133  A    between atoms: _335  and  _337
REMARK  134  A    between atoms: _337  and  _338
REMARK  135  A    between atoms: _340  and  _342
REMARK  136  A    between atoms: _342  and  _343
REMARK  137  A    between atoms: _346  and  _348
REMARK  138  A    between atoms: _348  and  _349
REMARK  139  A    between atoms: _348  and  _351
REMARK  140  A    between atoms: _351  and  _352
REMARK  141  A    between atoms: _355  and  _357
REMARK  142  A    between atoms: _357  and  _358
REMARK  143  A    between atoms: _357  and  _360
REMARK  144  A    between atoms: _360  and  _361
REMARK  145  A    between atoms: _364  and  _366
REMARK  146  A    between atoms: _366  and  _367
REMARK  147  A    between atoms: _366  and  _369
REMARK  148  A    between atoms: _369  and  _370
REMARK  149  A    between atoms: _373  and  _375
REMARK  150  A    between atoms: _375  and  _376
REMARK  151  A    between atoms: _375  and  _378
REMARK  152  A    between atoms: _381  and  _383
REMARK  153  A    between atoms: _383  and  _384
REMARK  154  A    between atoms: _383  and  _386
REMARK  155  A    between atoms: _386  and  _387
REMARK  156  A    between atoms: _387  and  _388
REMARK  157  A    between atoms: _388  and  _389
REMARK  158  A    between atoms: _398  and  _400
REMARK  159  A    between atoms: _400  and  _401
REMARK  160  A    between atoms: _400  and  _403
REMARK  161  A    between atoms: _403  and  _404
REMARK  162  A    between atoms: _407  and  _409
REMARK  163  A    between atoms: _409  and  _410
REMARK  164  A    between atoms: _409  and  _412
REMARK  165  A    between atoms: _412  and  _413
REMARK  166  A    between atoms: _416  and  _418
REMARK  167  A    between atoms: _418  and  _419
REMARK  168  A    between atoms: _421  and  _423
REMARK  169  A    between atoms: _423  and  _424
REMARK  170  A    between atoms: _426  and  _428
REMARK  171  A    between atoms: _428  and  _429
REMARK  172  A    between atoms: _428  and  _431
REMARK  173  A    between atoms: _431  and  _432
REMARK  174  A    between atoms: _435  and  _437
REMARK  175  A    between atoms: _437  and  _438
REMARK  176  A    between atoms: _440  and  _442
REMARK  177  A    between atoms: _442  and  _443
REMARK  178  A    between atoms: _445  and  _447
REMARK  179  A    between atoms: _447  and  _448
REMARK  180  A    between atoms: _447  and  _450
REMARK  181  A    between atoms: _453  and  _455
REMARK  182  A    between atoms: _455  and  _456
REMARK  183  A    between atoms: _455  and  _458
REMARK  184  A    between atoms: _458  and  _459
REMARK  185  A    between atoms: _462  and  _464
REMARK  186  A    between atoms: _464  and  _465
REMARK  187  A    between atoms: _464  and  _467
REMARK  188  A    between atoms: _467  and  _468
REMARK  189  A    between atoms: _472  and  _473
REMARK  190  A    between atoms: _478  and  _480
REMARK  191  A    between atoms: _480  and  _481
REMARK  192  A    between atoms: _480  and  _483
REMARK  193  A    between atoms: _483  and  _484
REMARK  194  A    between atoms: _487  and  _489
REMARK  195  A    between atoms: _489  and  _490
REMARK  196  A    between atoms: _489  and  _492
REMARK  197  A    between atoms: _492  and  _493
REMARK  198  A    between atoms: _498  and  _500
REMARK  199  A    between atoms: _500  and  _501
REMARK  200  A    between atoms: _500  and  _503
REMARK  201  A    between atoms: _506  and  _508
REMARK  202  A    between atoms: _508  and  _509
REMARK  203  A    between atoms: _508  and  _511
REMARK  204  A    between atoms: _511  and  _512
REMARK  205  A    between atoms: _515  and  _517
REMARK  206  A    between atoms: _517  and  _518
REMARK  207  A    between atoms: _520  and  _522
REMARK  208  A    between atoms: _522  and  _523
REMARK  209  A    between atoms: _522  and  _525
REMARK  210  A    between atoms: _525  and  _526
REMARK  211  A    between atoms: _526  and  _527
REMARK  212  A    between atoms: _527  and  _528
REMARK  213  A    between atoms: _537  and  _539
REMARK  214  A    between atoms: _539  and  _540
REMARK  215  A    between atoms: _539  and  _542
REMARK  216  A    between atoms: _542  and  _543
REMARK                            x       y       z     vdW  Elec       q    Type
REMARK                         _______ _______ _______ _____ _____    ______ ____
ROOT
ATOM      1  O   HOH     1     -10.962  18.735  40.688  0.00  0.00    +0.000 OA
ENDROOT
TORSDOF 0
REMARK  Name = ../refined-set-2016/3ggu/3ggu_pocket.pdb
REMARK  216 active torsions:
REMARK  status: ('A' for Active; 'I' for Inactive)
REMARK    1  A    between atoms: _1  and  _3
REMARK    2  A    between atoms: _3  and  _4
REMARK    3  A    between atoms: _3  and  _6
REMARK    4  A    between atoms: _6  and  _7
REMARK    5  A    between atoms: _7  and  _8
REMARK    6  A    between atoms: _8  and  _9
REMARK    7  A    between atoms: _18  and  _20
REMARK    8  A    between atoms: _20  and  _21
REMARK    9  A    between atoms: _20  and  _23
REMARK   10  A    between atoms: _23  and  _24
REMARK   11  A    between atoms: _27  and  _29
REMARK   12  A    between atoms: _29  and  _30
REMARK   13  A    between atoms: _29  and  _32
REMARK   14  A    between atoms: _32  and  _33
REMARK   15  A    between atoms: _36  and  _38
REMARK   16  A    between atoms: _38  and  _39
REMARK   17  A    between atoms: _38  and  _41
REMARK   18  A    between atoms: _41  and  _42
REMARK   19  A    between atoms: _45  and  _47
REMARK   20  A    between atoms: _47  and  _48
REMARK   21  A    between atoms: _47  and  _50
REMARK   22  A    between atoms: _50  and  _51
REMARK   23  A    between atoms: _54  and  _56
REMARK   24  A    between atoms: _56  and  _57
REMARK   25  A    between atoms: _59  and  _61
REMARK   26  A    between atoms: _61  and  _62
REMARK   27  A    between atoms: _65  and  _67
REMARK   28  A    between atoms: _67  and  _68
REMARK   29  A    between atoms: _67  and  _70
REMARK   30  A    between atoms: _70  and  _71
REMARK   31  A    between atoms: _74  and  _76
REMARK   32  A    between atoms: _76  and  _77
REMARK   33  A    between atoms: _76  and  _79
REMARK   34  A    between atoms: _79  and  _80
REMARK   35  A    between atoms: _83  and  _85
REMARK   36  A    between atoms: _85  and  _86
REMARK   37  A    between atoms: _85  and  _88
REMARK   38  A    between atoms: _88  and  _89
REMARK   39  A    between atoms: _92  and  _94
REMARK   40  A    between atoms: _94  and  _95
REMARK   41  A    between atoms: _94  and  _97
REMARK   42  A    between atoms: _100  and  _102
REMARK   43  A    between atoms: _102  and  _103
REMARK   44  A    between atoms: _102  and  _105
REMARK   45  A    between atoms: _105  and  _106
REMARK   46  A    between atoms: _106  and  _107
REMARK   47  A    between atoms: _107  and  _108
REMARK   48  A    between atoms: _117  and  _119
REMARK   49  A    between atoms: _119  and  _120
REMARK   50  A    between atoms: _119  and  _122
REMARK   51  A    between atoms: _122  and  _123
REMARK   52  A    between atoms: _126  and  _128
REMARK   53  A    between atoms: _128  and  _129
REMARK   54  A    between atoms: _128  and  _131
REMARK   55  A    between atoms: _131  and  _132
REMARK   56  A    between atoms: _135  and  _137
REMARK   57  A    between atoms: _137  and  _138
REMARK   58  A    between atoms: _140  and  _142
REMARK   59  A    between atoms: _142  and  _143
REMARK   60  A    between atoms: _145  and  _147
REMARK   61  A    between atoms: _147  and  _148
REMARK   62  A    between atoms: _147  and  _150
REMARK   63  A    between atoms: _150  and  _151
REMARK   64  A    between atoms: _154  and  _156
REMARK   65  A    between atoms: _156  and  _157
REMARK   66  A    between atoms: _159  and  _161
REMARK   67  A    between atoms: _161  and  _162
REMARK   68  A    between atoms: _164  and  _166
REMARK   69  A    between atoms: _166  and  _167
REMARK   70  A    between atoms: _166  and  _169
REMARK   71  A    between atoms: _172  and  _174
REMARK   72  A    between atoms: _174  and  _175
REMARK   73  A    between atoms: _174  and  _177
REMARK   74  A    between atoms: _180  and  _182
REMARK   75  A    between atoms: _182  and  _183
REMARK   76  A    between atoms: _182  and  _185
REMARK   77  A    between atoms: _185  and  _186
REMARK   78  A    between atoms: _190  and  _191
REMARK   79  A    between atoms: _196  and  _198
REMARK   80  A    between atoms: _198  and  _199
REMARK   81  A    between atoms: _198  and  _201
REMARK   82  A    between atoms: _201  and  _202
REMARK   83  A    between atoms: _206  and  _207
REMARK   84  A    between atoms: _212  and  _214
REMARK   85  A    between atoms: _214  and  _215
REMARK   86  A    between atoms: _214  and  _217
REMARK   87  A    between atoms: _217  and  _218
REMARK   88  A    between atoms: _221  and  _223
REMARK   89  A    between atoms: _223  and  _224
REMARK   90  A    between atoms: _223  and  _226
REMARK   91  A    between atoms: _226  and  _227
REMARK   92  A    between atoms: _232  and  _234
REMARK   93  A    between atoms: _234  and  _235
REMARK   94  A    between atoms: _234  and  _237
REMARK   95  A    between atoms: _240  and  _242
REMARK   96  A    between atoms: _242  and  _243
REMARK   97  A    between atoms: _242  and  _245
REMARK   98  A    between atoms: _245  and  _246
REMARK   99  A    between atoms: _249  and  _251
REMARK  100  A    between atoms: _251  and  _252
REMARK  101  A    between atoms: _254  and  _256
REMARK  102  A    between atoms: _256  and  _257
REMARK  103  A    between atoms: _256  and  _259
REMARK  104  A    between atoms: _259  and  _260
REMARK  105  A    between atoms: _260  and  _261
REMARK  106  A    between atoms: _261  and  _262
REMARK  107  A    between atoms: _271  and  _273
REMARK  108  A    between atoms: _273  and  _274
REMARK  109  A    between atoms: _273  and  _276
REMARK  110  A    between atoms: _276  and  _277
REMARK  111  A    between atoms: _282  and  _284
REMARK  112  A    between atoms: _284  and  _285
REMARK  113  A    between atoms: _284  and  _287
REMARK  114  A    between atoms: _287  and  _288
REMARK  115  A    between atoms: _288  and  _289
REMARK  116  A    between atoms: _289  and  _290
REMARK  117  A    between atoms: _299  and  _301
REMARK  118  A    between atoms: _301  and  _302
REMARK  119  A    between atoms: _301  and  _304
REMARK  120  A    between atoms: _304  and  _305
REMARK  121  A    between atoms: _308  and  _310
REMARK  122  A    between atoms: _310  and  _311
REMARK  123  A    between atoms: _310  and  _313
REMARK  124  A    between atoms: _313  and  _314
REMARK  125  A    between atoms: _317  and  _319
REMARK  126  A    between atoms: _319  and  _320
REMARK  127  A    between atoms: _319  and  _322
REMARK  128  A    between atoms: _322  and  _323
REMARK  129  A    between atoms: _326  and  _328
REMARK  130  A    between atoms: _328  and  _329
REMARK  131  A    between atoms: _328  and  _331
REMARK  132  A    between atoms: _331  and  _332
REMARK  133  A    between atoms: _335  and  _337
REMARK  134  A    between atoms: _337  and  _338
REMARK  135  A    between atoms: _340  and  _342
REMARK  136  A    between atoms: _342  and  _343
REMARK  137  A    between atoms: _346  and  _348
REMARK  138  A    between atoms: _348  and  _349
REMARK  139  A    between atoms: _348  and  _351
REMARK  140  A    between atoms: _351  and  _352
REMARK  141  A    between atoms: _355  and  _357
REMARK  142  A    between atoms: _357  and  _358
REMARK  143  A    between atoms: _357  and  _360
REMARK  144  A    between atoms: _360  and  _361
REMARK  145  A    between atoms: _364  and  _366
REMARK  146  A    between atoms: _366  and  _367
REMARK  147  A    between atoms: _366  and  _369
REMARK  148  A    between atoms: _369  and  _370
REMARK  149  A    between atoms: _373  and  _375
REMARK  150  A    between atoms: _375  and  _376
REMARK  151  A    between atoms: _375  and  _378
REMARK  152  A    between atoms: _381  and  _383
REMARK  153  A    between atoms: _383  and  _384
REMARK  154  A    between atoms: _383  and  _386
REMARK  155  A    between atoms: _386  and  _387
REMARK  156  A    between atoms: _387  and  _388
REMARK  157  A    between atoms: _388  and  _389
REMARK  158  A    between atoms: _398  and  _400
REMARK  159  A    between atoms: _400  and  _401
REMARK  160  A    between atoms: _400  and  _403
REMARK  161  A    between atoms: _403  and  _404
REMARK  162  A    between atoms: _407  and  _409
REMARK  163  A    between atoms: _409  and  _410
REMARK  164  A    between atoms: _409  and  _412
REMARK  165  A    between atoms: _412  and  _413
REMARK  166  A    between atoms: _416  and  _418
REMARK  167  A    between atoms: _418  and  _419
REMARK  168  A    between atoms: _421  and  _423
REMARK  169  A    between atoms: _423  and  _424
REMARK  170  A    between atoms: _426  and  _428
REMARK  171  A    between atoms: _428  and  _429
REMARK  172  A    between atoms: _428  and  _431
REMARK  173  A    between atoms: _431  and  _432
REMARK  174  A    between atoms: _435  and  _437
REMARK  175  A    between atoms: _437  and  _438
REMARK  176  A    between atoms: _440  and  _442
REMARK  177  A    between atoms: _442  and  _443
REMARK  178  A    between atoms: _445  and  _447
REMARK  179  A    between atoms: _447  and  _448
REMARK  180  A    between atoms: _447  and  _450
REMARK  181  A    between atoms: _453  and  _455
REMARK  182  A    between atoms: _455  and  _456
REMARK  183  A    between atoms: _455  and  _458
REMARK  184  A    between atoms: _458  and  _459
REMARK  185  A    between atoms: _462  and  _464
REMARK  186  A    between atoms: _464  and  _465
REMARK  187  A    between atoms: _464  and  _467
REMARK  188  A    between atoms: _467  and  _468
REMARK  189  A    between atoms: _472  and  _473
REMARK  190  A    between atoms: _478  and  _480
REMARK  191  A    between atoms: _480  and  _481
REMARK  192  A    between atoms: _480  and  _483
REMARK  193  A    between atoms: _483  and  _484
REMARK  194  A    between atoms: _487  and  _489
REMARK  195  A    between atoms: _489  and  _490
REMARK  196  A    between atoms: _489  and  _492
REMARK  197  A    between atoms: _492  and  _493
REMARK  198  A    between atoms: _498  and  _500
REMARK  199  A    between atoms: _500  and  _501
REMARK  200  A    between atoms: _500  and  _503
REMARK  201  A    between atoms: _506  and  _508
REMARK  202  A    between atoms: _508  and  _509
REMARK  203  A    between atoms: _508  and  _511
REMARK  204  A    between atoms: _511  and  _512
REMARK  205  A    between atoms: _515  and  _517
REMARK  206  A    between atoms: _517  and  _518
REMARK  207  A    between atoms: _520  and  _522
REMARK  208  A    between atoms: _522  and  _523
REMARK  209  A    between atoms: _522  and  _525
REMARK  210  A    between atoms: _525  and  _526
REMARK  211  A    between atoms: _526  and  _527
REMARK  212  A    between atoms: _527  and  _528
REMARK  213  A    between atoms: _537  and  _539
REMARK  214  A    between atoms: _539  and  _540
REMARK  215  A    between atoms: _539  and  _542
REMARK  216  A    between atoms: _542  and  _543
REMARK                            x       y       z     vdW  Elec       q    Type
REMARK                         _______ _______ _______ _____ _____    ______ ____
ROOT
ATOM      1  O   HOH     1      -3.828  21.564  23.123  0.00  0.00    +0.000 OA
ENDROOT
TORSDOF 0
REMARK  Name = ../refined-set-2016/3ggu/3ggu_pocket.pdb
REMARK  216 active torsions:
REMARK  status: ('A' for Active; 'I' for Inactive)
REMARK    1  A    between atoms: _1  and  _3
REMARK    2  A    between atoms: _3  and  _4
REMARK    3  A    between atoms: _3  and  _6
REMARK    4  A    between atoms: _6  and  _7
REMARK    5  A    between atoms: _7  and  _8
REMARK    6  A    between atoms: _8  and  _9
REMARK    7  A    between atoms: _18  and  _20
REMARK    8  A    between atoms: _20  and  _21
REMARK    9  A    between atoms: _20  and  _23
REMARK   10  A    between atoms: _23  and  _24
REMARK   11  A    between atoms: _27  and  _29
REMARK   12  A    between atoms: _29  and  _30
REMARK   13  A    between atoms: _29  and  _32
REMARK   14  A    between atoms: _32  and  _33
REMARK   15  A    between atoms: _36  and  _38
REMARK   16  A    between atoms: _38  and  _39
REMARK   17  A    between atoms: _38  and  _41
REMARK   18  A    between atoms: _41  and  _42
REMARK   19  A    between atoms: _45  and  _47
REMARK   20  A    between atoms: _47  and  _48
REMARK   21  A    between atoms: _47  and  _50
REMARK   22  A    between atoms: _50  and  _51
REMARK   23  A    between atoms: _54  and  _56
REMARK   24  A    between atoms: _56  and  _57
REMARK   25  A    between atoms: _59  and  _61
REMARK   26  A    between atoms: _61  and  _62
REMARK   27  A    between atoms: _65  and  _67
REMARK   28  A    between atoms: _67  and  _68
REMARK   29  A    between atoms: _67  and  _70
REMARK   30  A    between atoms: _70  and  _71
REMARK   31  A    between atoms: _74  and  _76
REMARK   32  A    between atoms: _76  and  _77
REMARK   33  A    between atoms: _76  and  _79
REMARK   34  A    between atoms: _79  and  _80
REMARK   35  A    between atoms: _83  and  _85
REMARK   36  A    between atoms: _85  and  _86
REMARK   37  A    between atoms: _85  and  _88
REMARK   38  A    between atoms: _88  and  _89
REMARK   39  A    between atoms: _92  and  _94
REMARK   40  A    between atoms: _94  and  _95
REMARK   41  A    between atoms: _94  and  _97
REMARK   42  A    between atoms: _100  and  _102
REMARK   43  A    between atoms: _102  and  _103
REMARK   44  A    between atoms: _102  and  _105
REMARK   45  A    between atoms: _105  and  _106
REMARK   46  A    between atoms: _106  and  _107
REMARK   47  A    between atoms: _107  and  _108
REMARK   48  A    between atoms: _117  and  _119
REMARK   49  A    between atoms: _119  and  _120
REMARK   50  A    between atoms: _119  and  _122
REMARK   51  A    between atoms: _122  and  _123
REMARK   52  A    between atoms: _126  and  _128
REMARK   53  A    between atoms: _128  and  _129
REMARK   54  A    between atoms: _128  and  _131
REMARK   55  A    between atoms: _131  and  _132
REMARK   56  A    between atoms: _135  and  _137
REMARK   57  A    between atoms: _137  and  _138
REMARK   58  A    between atoms: _140  and  _142
REMARK   59  A    between atoms: _142  and  _143
REMARK   60  A    between atoms: _145  and  _147
REMARK   61  A    between atoms: _147  and  _148
REMARK   62  A    between atoms: _147  and  _150
REMARK   63  A    between atoms: _150  and  _151
REMARK   64  A    between atoms: _154  and  _156
REMARK   65  A    between atoms: _156  and  _157
REMARK   66  A    between atoms: _159  and  _161
REMARK   67  A    between atoms: _161  and  _162
REMARK   68  A    between atoms: _164  and  _166
REMARK   69  A    between atoms: _166  and  _167
REMARK   70  A    between atoms: _166  and  _169
REMARK   71  A    between atoms: _172  and  _174
REMARK   72  A    between atoms: _174  and  _175
REMARK   73  A    between atoms: _174  and  _177
REMARK   74  A    between atoms: _180  and  _182
REMARK   75  A    between atoms: _182  and  _183
REMARK   76  A    between atoms: _182  and  _185
REMARK   77  A    between atoms: _185  and  _186
REMARK   78  A    between atoms: _190  and  _191
REMARK   79  A    between atoms: _196  and  _198
REMARK   80  A    between atoms: _198  and  _199
REMARK   81  A    between atoms: _198  and  _201
REMARK   82  A    between atoms: _201  and  _202
REMARK   83  A    between atoms: _206  and  _207
REMARK   84  A    between atoms: _212  and  _214
REMARK   85  A    between atoms: _214  and  _215
REMARK   86  A    between atoms: _214  and  _217
REMARK   87  A    between atoms: _217  and  _218
REMARK   88  A    between atoms: _221  and  _223
REMARK   89  A    between atoms: _223  and  _224
REMARK   90  A    between atoms: _223  and  _226
REMARK   91  A    between atoms: _226  and  _227
REMARK   92  A    between atoms: _232  and  _234
REMARK   93  A    between atoms: _234  and  _235
REMARK   94  A    between atoms: _234  and  _237
REMARK   95  A    between atoms: _240  and  _242
REMARK   96  A    between atoms: _242  and  _243
REMARK   97  A    between atoms: _242  and  _245
REMARK   98  A    between atoms: _245  and  _246
REMARK   99  A    between atoms: _249  and  _251
REMARK  100  A    between atoms: _251  and  _252
REMARK  101  A    between atoms: _254  and  _256
REMARK  102  A    between atoms: _256  and  _257
REMARK  103  A    between atoms: _256  and  _259
REMARK  104  A    between atoms: _259  and  _260
REMARK  105  A    between atoms: _260  and  _261
REMARK  106  A    between atoms: _261  and  _262
REMARK  107  A    between atoms: _271  and  _273
REMARK  108  A    between atoms: _273  and  _274
REMARK  109  A    between atoms: _273  and  _276
REMARK  110  A    between atoms: _276  and  _277
REMARK  111  A    between atoms: _282  and  _284
REMARK  112  A    between atoms: _284  and  _285
REMARK  113  A    between atoms: _284  and  _287
REMARK  114  A    between atoms: _287  and  _288
REMARK  115  A    between atoms: _288  and  _289
REMARK  116  A    between atoms: _289  and  _290
REMARK  117  A    between atoms: _299  and  _301
REMARK  118  A    between atoms: _301  and  _302
REMARK  119  A    between atoms: _301  and  _304
REMARK  120  A    between atoms: _304  and  _305
REMARK  121  A    between atoms: _308  and  _310
REMARK  122  A    between atoms: _310  and  _311
REMARK  123  A    between atoms: _310  and  _313
REMARK  124  A    between atoms: _313  and  _314
REMARK  125  A    between atoms: _317  and  _319
REMARK  126  A    between atoms: _319  and  _320
REMARK  127  A    between atoms: _319  and  _322
REMARK  128  A    between atoms: _322  and  _323
REMARK  129  A    between atoms: _326  and  _328
REMARK  130  A    between atoms: _328  and  _329
REMARK  131  A    between atoms: _328  and  _331
REMARK  132  A    between atoms: _331  and  _332
REMARK  133  A    between atoms: _335  and  _337
REMARK  134  A    between atoms: _337  and  _338
REMARK  135  A    between atoms: _340  and  _342
REMARK  136  A    between atoms: _342  and  _343
REMARK  137  A    between atoms: _346  and  _348
REMARK  138  A    between atoms: _348  and  _349
REMARK  139  A    between atoms: _348  and  _351
REMARK  140  A    between atoms: _351  and  _352
REMARK  141  A    between atoms: _355  and  _357
REMARK  142  A    between atoms: _357  and  _358
REMARK  143  A    between atoms: _357  and  _360
REMARK  144  A    between atoms: _360  and  _361
REMARK  145  A    between atoms: _364  and  _366
REMARK  146  A    between atoms: _366  and  _367
REMARK  147  A    between atoms: _366  and  _369
REMARK  148  A    between atoms: _369  and  _370
REMARK  149  A    between atoms: _373  and  _375
REMARK  150  A    between atoms: _375  and  _376
REMARK  151  A    between atoms: _375  and  _378
REMARK  152  A    between atoms: _381  and  _383
REMARK  153  A    between atoms: _383  and  _384
REMARK  154  A    between atoms: _383  and  _386
REMARK  155  A    between atoms: _386  and  _387
REMARK  156  A    between atoms: _387  and  _388
REMARK  157  A    between atoms: _388  and  _389
REMARK  158  A    between atoms: _398  and  _400
REMARK  159  A    between atoms: _400  and  _401
REMARK  160  A    between atoms: _400  and  _403
REMARK  161  A    between atoms: _403  and  _404
REMARK  162  A    between atoms: _407  and  _409
REMARK  163  A    between atoms: _409  and  _410
REMARK  164  A    between atoms: _409  and  _412
REMARK  165  A    between atoms: _412  and  _413
REMARK  166  A    between atoms: _416  and  _418
REMARK  167  A    between atoms: _418  and  _419
REMARK  168  A    between atoms: _421  and  _423
REMARK  169  A    between atoms: _423  and  _424
REMARK  170  A    between atoms: _426  and  _428
REMARK  171  A    between atoms: _428  and  _429
REMARK  172  A    between atoms: _428  and  _431
REMARK  173  A    between atoms: _431  and  _432
REMARK  174  A    between atoms: _435  and  _437
REMARK  175  A    between atoms: _437  and  _438
REMARK  176  A    between atoms: _440  and  _442
REMARK  177  A    between atoms: _442  and  _443
REMARK  178  A    between atoms: _445  and  _447
REMARK  179  A    between atoms: _447  and  _448
REMARK  180  A    between atoms: _447  and  _450
REMARK  181  A    between atoms: _453  and  _455
REMARK  182  A    between atoms: _455  and  _456
REMARK  183  A    between atoms: _455  and  _458
REMARK  184  A    between atoms: _458  and  _459
REMARK  185  A    between atoms: _462  and  _464
REMARK  186  A    between atoms: _464  and  _465
REMARK  187  A    between atoms: _464  and  _467
REMARK  188  A    between atoms: _467  and  _468
REMARK  189  A    between atoms: _472  and  _473
REMARK  190  A    between atoms: _478  and  _480
REMARK  191  A    between atoms: _480  and  _481
REMARK  192  A    between atoms: _480  and  _483
REMARK  193  A    between atoms: _483  and  _484
REMARK  194  A    between atoms: _487  and  _489
REMARK  195  A    between atoms: _489  and  _490
REMARK  196  A    between atoms: _489  and  _492
REMARK  197  A    between atoms: _492  and  _493
REMARK  198  A    between atoms: _498  and  _500
REMARK  199  A    between atoms: _500  and  _501
REMARK  200  A    between atoms: _500  and  _503
REMARK  201  A    between atoms: _506  and  _508
REMARK  202  A    between atoms: _508  and  _509
REMARK  203  A    between atoms: _508  and  _511
REMARK  204  A    between atoms: _511  and  _512
REMARK  205  A    between atoms: _515  and  _517
REMARK  206  A    between atoms: _517  and  _518
REMARK  207  A    between atoms: _520  and  _522
REMARK  208  A    between atoms: _522  and  _523
REMARK  209  A    between atoms: _522  and  _525
REMARK  210  A    between atoms: _525  and  _526
REMARK  211  A    between atoms: _526  and  _527
REMARK  212  A    between atoms: _527  and  _528
REMARK  213  A    between atoms: _537  and  _539
REMARK  214  A    between atoms: _539  and  _540
REMARK  215  A    between atoms: _539  and  _542
REMARK  216  A    between atoms: _542  and  _543
REMARK                            x       y       z     vdW  Elec       q    Type
REMARK                         _______ _______ _______ _____ _____    ______ ____
ROOT
ATOM      1  O   HOH     1       0.161  23.857  28.492  0.00  0.00    +0.000 OA
ENDROOT
TORSDOF 0
REMARK  Name = ../refined-set-2016/3ggu/3ggu_pocket.pdb
REMARK  216 active torsions:
REMARK  status: ('A' for Active; 'I' for Inactive)
REMARK    1  A    between atoms: _1  and  _3
REMARK    2  A    between atoms: _3  and  _4
REMARK    3  A    between atoms: _3  and  _6
REMARK    4  A    between atoms: _6  and  _7
REMARK    5  A    between atoms: _7  and  _8
REMARK    6  A    between atoms: _8  and  _9
REMARK    7  A    between atoms: _18  and  _20
REMARK    8  A    between atoms: _20  and  _21
REMARK    9  A    between atoms: _20  and  _23
REMARK   10  A    between atoms: _23  and  _24
REMARK   11  A    between atoms: _27  and  _29
REMARK   12  A    between atoms: _29  and  _30
REMARK   13  A    between atoms: _29  and  _32
REMARK   14  A    between atoms: _32  and  _33
REMARK   15  A    between atoms: _36  and  _38
REMARK   16  A    between atoms: _38  and  _39
REMARK   17  A    between atoms: _38  and  _41
REMARK   18  A    between atoms: _41  and  _42
REMARK   19  A    between atoms: _45  and  _47
REMARK   20  A    between atoms: _47  and  _48
REMARK   21  A    between atoms: _47  and  _50
REMARK   22  A    between atoms: _50  and  _51
REMARK   23  A    between atoms: _54  and  _56
REMARK   24  A    between atoms: _56  and  _57
REMARK   25  A    between atoms: _59  and  _61
REMARK   26  A    between atoms: _61  and  _62
REMARK   27  A    between atoms: _65  and  _67
REMARK   28  A    between atoms: _67  and  _68
REMARK   29  A    between atoms: _67  and  _70
REMARK   30  A    between atoms: _70  and  _71
REMARK   31  A    between atoms: _74  and  _76
REMARK   32  A    between atoms: _76  and  _77
REMARK   33  A    between atoms: _76  and  _79
REMARK   34  A    between atoms: _79  and  _80
REMARK   35  A    between atoms: _83  and  _85
REMARK   36  A    between atoms: _85  and  _86
REMARK   37  A    between atoms: _85  and  _88
REMARK   38  A    between atoms: _88  and  _89
REMARK   39  A    between atoms: _92  and  _94
REMARK   40  A    between atoms: _94  and  _95
REMARK   41  A    between atoms: _94  and  _97
REMARK   42  A    between atoms: _100  and  _102
REMARK   43  A    between atoms: _102  and  _103
REMARK   44  A    between atoms: _102  and  _105
REMARK   45  A    between atoms: _105  and  _106
REMARK   46  A    between atoms: _106  and  _107
REMARK   47  A    between atoms: _107  and  _108
REMARK   48  A    between atoms: _117  and  _119
REMARK   49  A    between atoms: _119  and  _120
REMARK   50  A    between atoms: _119  and  _122
REMARK   51  A    between atoms: _122  and  _123
REMARK   52  A    between atoms: _126  and  _128
REMARK   53  A    between atoms: _128  and  _129
REMARK   54  A    between atoms: _128  and  _131
REMARK   55  A    between atoms: _131  and  _132
REMARK   56  A    between atoms: _135  and  _137
REMARK   57  A    between atoms: _137  and  _138
REMARK   58  A    between atoms: _140  and  _142
REMARK   59  A    between atoms: _142  and  _143
REMARK   60  A    between atoms: _145  and  _147
REMARK   61  A    between atoms: _147  and  _148
REMARK   62  A    between atoms: _147  and  _150
REMARK   63  A    between atoms: _150  and  _151
REMARK   64  A    between atoms: _154  and  _156
REMARK   65  A    between atoms: _156  and  _157
REMARK   66  A    between atoms: _159  and  _161
REMARK   67  A    between atoms: _161  and  _162
REMARK   68  A    between atoms: _164  and  _166
REMARK   69  A    between atoms: _166  and  _167
REMARK   70  A    between atoms: _166  and  _169
REMARK   71  A    between atoms: _172  and  _174
REMARK   72  A    between atoms: _174  and  _175
REMARK   73  A    between atoms: _174  and  _177
REMARK   74  A    between atoms: _180  and  _182
REMARK   75  A    between atoms: _182  and  _183
REMARK   76  A    between atoms: _182  and  _185
REMARK   77  A    between atoms: _185  and  _186
REMARK   78  A    between atoms: _190  and  _191
REMARK   79  A    between atoms: _196  and  _198
REMARK   80  A    between atoms: _198  and  _199
REMARK   81  A    between atoms: _198  and  _201
REMARK   82  A    between atoms: _201  and  _202
REMARK   83  A    between atoms: _206  and  _207
REMARK   84  A    between atoms: _212  and  _214
REMARK   85  A    between atoms: _214  and  _215
REMARK   86  A    between atoms: _214  and  _217
REMARK   87  A    between atoms: _217  and  _218
REMARK   88  A    between atoms: _221  and  _223
REMARK   89  A    between atoms: _223  and  _224
REMARK   90  A    between atoms: _223  and  _226
REMARK   91  A    between atoms: _226  and  _227
REMARK   92  A    between atoms: _232  and  _234
REMARK   93  A    between atoms: _234  and  _235
REMARK   94  A    between atoms: _234  and  _237
REMARK   95  A    between atoms: _240  and  _242
REMARK   96  A    between atoms: _242  and  _243
REMARK   97  A    between atoms: _242  and  _245
REMARK   98  A    between atoms: _245  and  _246
REMARK   99  A    between atoms: _249  and  _251
REMARK  100  A    between atoms: _251  and  _252
REMARK  101  A    between atoms: _254  and  _256
REMARK  102  A    between atoms: _256  and  _257
REMARK  103  A    between atoms: _256  and  _259
REMARK  104  A    between atoms: _259  and  _260
REMARK  105  A    between atoms: _260  and  _261
REMARK  106  A    between atoms: _261  and  _262
REMARK  107  A    between atoms: _271  and  _273
REMARK  108  A    between atoms: _273  and  _274
REMARK  109  A    between atoms: _273  and  _276
REMARK  110  A    between atoms: _276  and  _277
REMARK  111  A    between atoms: _282  and  _284
REMARK  112  A    between atoms: _284  and  _285
REMARK  113  A    between atoms: _284  and  _287
REMARK  114  A    between atoms: _287  and  _288
REMARK  115  A    between atoms: _288  and  _289
REMARK  116  A    between atoms: _289  and  _290
REMARK  117  A    between atoms: _299  and  _301
REMARK  118  A    between atoms: _301  and  _302
REMARK  119  A    between atoms: _301  and  _304
REMARK  120  A    between atoms: _304  and  _305
REMARK  121  A    between atoms: _308  and  _310
REMARK  122  A    between atoms: _310  and  _311
REMARK  123  A    between atoms: _310  and  _313
REMARK  124  A    between atoms: _313  and  _314
REMARK  125  A    between atoms: _317  and  _319
REMARK  126  A    between atoms: _319  and  _320
REMARK  127  A    between atoms: _319  and  _322
REMARK  128  A    between atoms: _322  and  _323
REMARK  129  A    between atoms: _326  and  _328
REMARK  130  A    between atoms: _328  and  _329
REMARK  131  A    between atoms: _328  and  _331
REMARK  132  A    between atoms: _331  and  _332
REMARK  133  A    between atoms: _335  and  _337
REMARK  134  A    between atoms: _337  and  _338
REMARK  135  A    between atoms: _340  and  _342
REMARK  136  A    between atoms: _342  and  _343
REMARK  137  A    between atoms: _346  and  _348
REMARK  138  A    between atoms: _348  and  _349
REMARK  139  A    between atoms: _348  and  _351
REMARK  140  A    between atoms: _351  and  _352
REMARK  141  A    between atoms: _355  and  _357
REMARK  142  A    between atoms: _357  and  _358
REMARK  143  A    between atoms: _357  and  _360
REMARK  144  A    between atoms: _360  and  _361
REMARK  145  A    between atoms: _364  and  _366
REMARK  146  A    between atoms: _366  and  _367
REMARK  147  A    between atoms: _366  and  _369
REMARK  148  A    between atoms: _369  and  _370
REMARK  149  A    between atoms: _373  and  _375
REMARK  150  A    between atoms: _375  and  _376
REMARK  151  A    between atoms: _375  and  _378
REMARK  152  A    between atoms: _381  and  _383
REMARK  153  A    between atoms: _383  and  _384
REMARK  154  A    between atoms: _383  and  _386
REMARK  155  A    between atoms: _386  and  _387
REMARK  156  A    between atoms: _387  and  _388
REMARK  157  A    between atoms: _388  and  _389
REMARK  158  A    between atoms: _398  and  _400
REMARK  159  A    between atoms: _400  and  _401
REMARK  160  A    between atoms: _400  and  _403
REMARK  161  A    between atoms: _403  and  _404
REMARK  162  A    between atoms: _407  and  _409
REMARK  163  A    between atoms: _409  and  _410
REMARK  164  A    between atoms: _409  and  _412
REMARK  165  A    between atoms: _412  and  _413
REMARK  166  A    between atoms: _416  and  _418
REMARK  167  A    between atoms: _418  and  _419
REMARK  168  A    between atoms: _421  and  _423
REMARK  169  A    between atoms: _423  and  _424
REMARK  170  A    between atoms: _426  and  _428
REMARK  171  A    between atoms: _428  and  _429
REMARK  172  A    between atoms: _428  and  _431
REMARK  173  A    between atoms: _431  and  _432
REMARK  174  A    between atoms: _435  and  _437
REMARK  175  A    between atoms: _437  and  _438
REMARK  176  A    between atoms: _440  and  _442
REMARK  177  A    between atoms: _442  and  _443
REMARK  178  A    between atoms: _445  and  _447
REMARK  179  A    between atoms: _447  and  _448
REMARK  180  A    between atoms: _447  and  _450
REMARK  181  A    between atoms: _453  and  _455
REMARK  182  A    between atoms: _455  and  _456
REMARK  183  A    between atoms: _455  and  _458
REMARK  184  A    between atoms: _458  and  _459
REMARK  185  A    between atoms: _462  and  _464
REMARK  186  A    between atoms: _464  and  _465
REMARK  187  A    between atoms: _464  and  _467
REMARK  188  A    between atoms: _467  and  _468
REMARK  189  A    between atoms: _472  and  _473
REMARK  190  A    between atoms: _478  and  _480
REMARK  191  A    between atoms: _480  and  _481
REMARK  192  A    between atoms: _480  and  _483
REMARK  193  A    between atoms: _483  and  _484
REMARK  194  A    between atoms: _487  and  _489
REMARK  195  A    between atoms: _489  and  _490
REMARK  196  A    between atoms: _489  and  _492
REMARK  197  A    between atoms: _492  and  _493
REMARK  198  A    between atoms: _498  and  _500
REMARK  199  A    between atoms: _500  and  _501
REMARK  200  A    between atoms: _500  and  _503
REMARK  201  A    between atoms: _506  and  _508
REMARK  202  A    between atoms: _508  and  _509
REMARK  203  A    between atoms: _508  and  _511
REMARK  204  A    between atoms: _511  and  _512
REMARK  205  A    between atoms: _515  and  _517
REMARK  206  A    between atoms: _517  and  _518
REMARK  207  A    between atoms: _520  and  _522
REMARK  208  A    between atoms: _522  and  _523
REMARK  209  A    between atoms: _522  and  _525
REMARK  210  A    between atoms: _525  and  _526
REMARK  211  A    between atoms: _526  and  _527
REMARK  212  A    between atoms: _527  and  _528
REMARK  213  A    between atoms: _537  and  _539
REMARK  214  A    between atoms: _539  and  _540
REMARK  215  A    between atoms: _539  and  _542
REMARK  216  A    between atoms: _542  and  _543
REMARK                            x       y       z     vdW  Elec       q    Type
REMARK                         _______ _______ _______ _____ _____    ______ ____
ROOT
ATOM      1  O   HOH     1     -15.773  20.464  37.932  0.00  0.00    +0.000 OA
ENDROOT
TORSDOF 0
