REMARK  Name = ../refined-set-2016/1lcp/1lcp_pocket.pdb
REMARK  143 active torsions:
REMARK  status: ('A' for Active; 'I' for Inactive)
REMARK    1  A    between atoms: _1  and  _3
REMARK    2  A    between atoms: _3  and  _4
REMARK    3  A    between atoms: _3  and  _6
REMARK    4  A    between atoms: _6  and  _7
REMARK    5  A    between atoms: _7  and  _8
REMARK    6  A    between atoms: _8  and  _9
REMARK    7  A    between atoms: _9  and  _10
REMARK    8  A    between atoms: _14  and  _16
REMARK    9  A    between atoms: _16  and  _17
REMARK   10  A    between atoms: _16  and  _19
REMARK   11  A    between atoms: _19  and  _20
REMARK   12  A    between atoms: _23  and  _25
REMARK   13  A    between atoms: _25  and  _26
REMARK   14  A    between atoms: _25  and  _28
REMARK   15  A    between atoms: _28  and  _29
REMARK   16  A    between atoms: _35  and  _37
REMARK   17  A    between atoms: _37  and  _38
REMARK   18  A    between atoms: _37  and  _40
REMARK   19  A    between atoms: _40  and  _41
REMARK   20  A    between atoms: _41  and  _43
REMARK   21  A    between atoms: _43  and  ZN_337
REMARK   22  A    between atoms: _44  and  _46
REMARK   23  A    between atoms: _46  and  _47
REMARK   24  A    between atoms: _46  and  _49
REMARK   25  A    between atoms: _49  and  _50
REMARK   26  A    between atoms: _52  and  _54
REMARK   27  A    between atoms: _54  and  _55
REMARK   28  A    between atoms: _57  and  _59
REMARK   29  A    between atoms: _59  and  _60
REMARK   30  A    between atoms: _59  and  _62
REMARK   31  A    between atoms: _62  and  _63
REMARK   32  A    between atoms: _65  and  _67
REMARK   33  A    between atoms: _67  and  _68
REMARK   34  A    between atoms: _67  and  _70
REMARK   35  A    between atoms: _70  and  _71
REMARK   36  A    between atoms: _71  and  _72
REMARK   37  A    between atoms: _72  and  _73
REMARK   38  A    between atoms: _73  and  _74
REMARK   39  A    between atoms: _78  and  _80
REMARK   40  A    between atoms: _80  and  _81
REMARK   41  A    between atoms: _80  and  _83
REMARK   42  A    between atoms: _83  and  _84
REMARK   43  A    between atoms: _89  and  _91
REMARK   44  A    between atoms: _91  and  _92
REMARK   45  A    between atoms: _91  and  _94
REMARK   46  A    between atoms: _94  and  _95
REMARK   47  A    between atoms: _98  and  _100
REMARK   48  A    between atoms: _100  and  _101
REMARK   49  A    between atoms: _100  and  _103
REMARK   50  A    between atoms: _103  and  _104
REMARK   51  A    between atoms: _104  and  _105
REMARK   52  A    between atoms: _107  and  _109
REMARK   53  A    between atoms: _109  and  _110
REMARK   54  A    between atoms: _113  and  _115
REMARK   55  A    between atoms: _115  and  _116
REMARK   56  A    between atoms: _115  and  _118
REMARK   57  A    between atoms: _118  and  _119
REMARK   58  A    between atoms: _119  and  _121
REMARK   59  A    between atoms: _121  and  ZN_338
REMARK   60  A    between atoms: _122  and  _124
REMARK   61  A    between atoms: _124  and  _125
REMARK   62  A    between atoms: _124  and  _127
REMARK   63  A    between atoms: _127  and  _128
REMARK   64  A    between atoms: _128  and  _129
REMARK   65  A    between atoms: _131  and  _133
REMARK   66  A    between atoms: _133  and  _134
REMARK   67  A    between atoms: _136  and  _138
REMARK   68  A    between atoms: _138  and  _139
REMARK   69  A    between atoms: _138  and  _141
REMARK   70  A    between atoms: _141  and  _142
REMARK   71  A    between atoms: _147  and  _149
REMARK   72  A    between atoms: _149  and  _150
REMARK   73  A    between atoms: _149  and  _152
REMARK   74  A    between atoms: _152  and  _153
REMARK   75  A    between atoms: _158  and  _160
REMARK   76  A    between atoms: _160  and  _161
REMARK   77  A    between atoms: _160  and  _163
REMARK   78  A    between atoms: _163  and  _164
REMARK   79  A    between atoms: _167  and  _169
REMARK   80  A    between atoms: _184  and  _185
REMARK   81  A    between atoms: _189  and  _191
REMARK   82  A    between atoms: _191  and  ZN_338
REMARK   83  A    between atoms: _192  and  _194
REMARK   84  A    between atoms: _194  and  _195
REMARK   85  A    between atoms: _197  and  _199
REMARK   86  A    between atoms: _199  and  _200
REMARK   87  A    between atoms: _199  and  _202
REMARK   88  A    between atoms: _202  and  _203
REMARK   89  A    between atoms: _203  and  _204
REMARK   90  A    between atoms: _204  and  _205
REMARK   91  A    between atoms: _214  and  _216
REMARK   92  A    between atoms: _216  and  _217
REMARK   93  A    between atoms: _216  and  _219
REMARK   94  A    between atoms: _219  and  _220
REMARK   95  A    between atoms: _223  and  _225
REMARK   96  A    between atoms: _225  and  _226
REMARK   97  A    between atoms: _229  and  _231
REMARK   98  A    between atoms: _231  and  _232
REMARK   99  A    between atoms: _231  and  _234
REMARK  100  A    between atoms: _234  and  _235
REMARK  101  A    between atoms: _238  and  _240
REMARK  102  A    between atoms: _240  and  _241
REMARK  103  A    between atoms: _240  and  _243
REMARK  104  A    between atoms: _243  and  _244
REMARK  105  A    between atoms: _247  and  _249
REMARK  106  A    between atoms: _249  and  _250
REMARK  107  A    between atoms: _249  and  _252
REMARK  108  A    between atoms: _252  and  _253
REMARK  109  A    between atoms: _256  and  _258
REMARK  110  A    between atoms: _258  and  _259
REMARK  111  A    between atoms: _261  and  _263
REMARK  112  A    between atoms: _263  and  _264
REMARK  113  A    between atoms: _267  and  _269
REMARK  114  A    between atoms: _269  and  _270
REMARK  115  A    between atoms: _269  and  _272
REMARK  116  A    between atoms: _272  and  _273
REMARK  117  A    between atoms: _273  and  _274
REMARK  118  A    between atoms: _276  and  _278
REMARK  119  A    between atoms: _278  and  _279
REMARK  120  A    between atoms: _278  and  _281
REMARK  121  A    between atoms: _281  and  _282
REMARK  122  A    between atoms: _285  and  _287
REMARK  123  A    between atoms: _287  and  _288
REMARK  124  A    between atoms: _291  and  _293
REMARK  125  A    between atoms: _293  and  _294
REMARK  126  A    between atoms: _293  and  _296
REMARK  127  A    between atoms: _296  and  _297
REMARK  128  A    between atoms: _300  and  _302
REMARK  129  A    between atoms: _302  and  _303
REMARK  130  A    between atoms: _302  and  _305
REMARK  131  A    between atoms: _305  and  _306
REMARK  132  A    between atoms: _309  and  _311
REMARK  133  A    between atoms: _311  and  _312
REMARK  134  A    between atoms: _315  and  _317
REMARK  135  A    between atoms: _317  and  _318
REMARK  136  A    between atoms: _320  and  _322
REMARK  137  A    between atoms: _322  and  _323
REMARK  138  A    between atoms: _322  and  _325
REMARK  139  A    between atoms: _328  and  _330
REMARK  140  A    between atoms: _330  and  _331
REMARK  141  A    between atoms: _330  and  _333
REMARK  142  A    between atoms: _333  and  _334
REMARK  143  A    between atoms: _334  and  _335
REMARK                            x       y       z     vdW  Elec       q    Type
REMARK                         _______ _______ _______ _____ _____    ______ ____
ROOT
ATOM      1  CG  LYS A   1      -1.531  54.344  51.430  0.00  0.00    -0.000 C 
ENDROOT
BRANCH   1   2
ATOM      2  CB  LYS A   1      -1.706  52.822  51.507  0.00  0.00    +0.025 C 
BRANCH   2   3
ATOM      3  CA  LYS A   1      -2.064  52.277  52.909  0.00  0.00    +0.133 C 
BRANCH   3   4
ATOM      4  N   LYS A   1      -2.360  50.831  52.830  0.00  0.00    -0.239 NA
ATOM      5  H   LYS A   1      -2.446  50.391  51.892  0.00  0.00    +0.142 HD
ENDBRANCH   3   4
BRANCH   3   6
ATOM      6  C   LYS A   1      -3.297  53.029  53.461  0.00  0.00    +0.224 C 
ATOM      7  O   LYS A   1      -4.380  52.981  52.865  0.00  0.00    -0.287 OA
ENDBRANCH   3   6
ENDBRANCH   2   3
ENDBRANCH   1   2
BRANCH   1   8
ATOM      8  CD  LYS A   1      -1.359  54.831  49.978  0.00  0.00    -0.024 C 
BRANCH   8   9
ATOM      9  CE  LYS A   1      -1.405  56.373  49.867  0.00  0.00    -0.086 C 
BRANCH   9  10
ATOM     10  NZ  LYS A   1      -1.248  56.864  48.447  0.00  0.00    +0.380 N 
ATOM     11  HZ1 LYS A   1      -1.287  57.903  48.435  0.00  0.00    -0.089 HD
ATOM     12  HZ2 LYS A   1      -0.332  56.545  48.071  0.00  0.00    -0.089 HD
ATOM     13  HZ3 LYS A   1      -2.017  56.480  47.862  0.00  0.00    -0.089 HD
ENDBRANCH   9  10
ENDBRANCH   8   9
ENDBRANCH   1   8
TORSDOF 7
REMARK  Name = ../refined-set-2016/1lcp/1lcp_pocket.pdb
REMARK  143 active torsions:
REMARK  status: ('A' for Active; 'I' for Inactive)
REMARK    1  A    between atoms: _1  and  _3
REMARK    2  A    between atoms: _3  and  _4
REMARK    3  A    between atoms: _3  and  _6
REMARK    4  A    between atoms: _6  and  _7
REMARK    5  A    between atoms: _7  and  _8
REMARK    6  A    between atoms: _8  and  _9
REMARK    7  A    between atoms: _9  and  _10
REMARK    8  A    between atoms: _14  and  _16
REMARK    9  A    between atoms: _16  and  _17
REMARK   10  A    between atoms: _16  and  _19
REMARK   11  A    between atoms: _19  and  _20
REMARK   12  A    between atoms: _23  and  _25
REMARK   13  A    between atoms: _25  and  _26
REMARK   14  A    between atoms: _25  and  _28
REMARK   15  A    between atoms: _28  and  _29
REMARK   16  A    between atoms: _35  and  _37
REMARK   17  A    between atoms: _37  and  _38
REMARK   18  A    between atoms: _37  and  _40
REMARK   19  A    between atoms: _40  and  _41
REMARK   20  A    between atoms: _41  and  _43
REMARK   21  A    between atoms: _43  and  ZN_337
REMARK   22  A    between atoms: _44  and  _46
REMARK   23  A    between atoms: _46  and  _47
REMARK   24  A    between atoms: _46  and  _49
REMARK   25  A    between atoms: _49  and  _50
REMARK   26  A    between atoms: _52  and  _54
REMARK   27  A    between atoms: _54  and  _55
REMARK   28  A    between atoms: _57  and  _59
REMARK   29  A    between atoms: _59  and  _60
REMARK   30  A    between atoms: _59  and  _62
REMARK   31  A    between atoms: _62  and  _63
REMARK   32  A    between atoms: _65  and  _67
REMARK   33  A    between atoms: _67  and  _68
REMARK   34  A    between atoms: _67  and  _70
REMARK   35  A    between atoms: _70  and  _71
REMARK   36  A    between atoms: _71  and  _72
REMARK   37  A    between atoms: _72  and  _73
REMARK   38  A    between atoms: _73  and  _74
REMARK   39  A    between atoms: _78  and  _80
REMARK   40  A    between atoms: _80  and  _81
REMARK   41  A    between atoms: _80  and  _83
REMARK   42  A    between atoms: _83  and  _84
REMARK   43  A    between atoms: _89  and  _91
REMARK   44  A    between atoms: _91  and  _92
REMARK   45  A    between atoms: _91  and  _94
REMARK   46  A    between atoms: _94  and  _95
REMARK   47  A    between atoms: _98  and  _100
REMARK   48  A    between atoms: _100  and  _101
REMARK   49  A    between atoms: _100  and  _103
REMARK   50  A    between atoms: _103  and  _104
REMARK   51  A    between atoms: _104  and  _105
REMARK   52  A    between atoms: _107  and  _109
REMARK   53  A    between atoms: _109  and  _110
REMARK   54  A    between atoms: _113  and  _115
REMARK   55  A    between atoms: _115  and  _116
REMARK   56  A    between atoms: _115  and  _118
REMARK   57  A    between atoms: _118  and  _119
REMARK   58  A    between atoms: _119  and  _121
REMARK   59  A    between atoms: _121  and  ZN_338
REMARK   60  A    between atoms: _122  and  _124
REMARK   61  A    between atoms: _124  and  _125
REMARK   62  A    between atoms: _124  and  _127
REMARK   63  A    between atoms: _127  and  _128
REMARK   64  A    between atoms: _128  and  _129
REMARK   65  A    between atoms: _131  and  _133
REMARK   66  A    between atoms: _133  and  _134
REMARK   67  A    between atoms: _136  and  _138
REMARK   68  A    between atoms: _138  and  _139
REMARK   69  A    between atoms: _138  and  _141
REMARK   70  A    between atoms: _141  and  _142
REMARK   71  A    between atoms: _147  and  _149
REMARK   72  A    between atoms: _149  and  _150
REMARK   73  A    between atoms: _149  and  _152
REMARK   74  A    between atoms: _152  and  _153
REMARK   75  A    between atoms: _158  and  _160
REMARK   76  A    between atoms: _160  and  _161
REMARK   77  A    between atoms: _160  and  _163
REMARK   78  A    between atoms: _163  and  _164
REMARK   79  A    between atoms: _167  and  _169
REMARK   80  A    between atoms: _184  and  _185
REMARK   81  A    between atoms: _189  and  _191
REMARK   82  A    between atoms: _191  and  ZN_338
REMARK   83  A    between atoms: _192  and  _194
REMARK   84  A    between atoms: _194  and  _195
REMARK   85  A    between atoms: _197  and  _199
REMARK   86  A    between atoms: _199  and  _200
REMARK   87  A    between atoms: _199  and  _202
REMARK   88  A    between atoms: _202  and  _203
REMARK   89  A    between atoms: _203  and  _204
REMARK   90  A    between atoms: _204  and  _205
REMARK   91  A    between atoms: _214  and  _216
REMARK   92  A    between atoms: _216  and  _217
REMARK   93  A    between atoms: _216  and  _219
REMARK   94  A    between atoms: _219  and  _220
REMARK   95  A    between atoms: _223  and  _225
REMARK   96  A    between atoms: _225  and  _226
REMARK   97  A    between atoms: _229  and  _231
REMARK   98  A    between atoms: _231  and  _232
REMARK   99  A    between atoms: _231  and  _234
REMARK  100  A    between atoms: _234  and  _235
REMARK  101  A    between atoms: _238  and  _240
REMARK  102  A    between atoms: _240  and  _241
REMARK  103  A    between atoms: _240  and  _243
REMARK  104  A    between atoms: _243  and  _244
REMARK  105  A    between atoms: _247  and  _249
REMARK  106  A    between atoms: _249  and  _250
REMARK  107  A    between atoms: _249  and  _252
REMARK  108  A    between atoms: _252  and  _253
REMARK  109  A    between atoms: _256  and  _258
REMARK  110  A    between atoms: _258  and  _259
REMARK  111  A    between atoms: _261  and  _263
REMARK  112  A    between atoms: _263  and  _264
REMARK  113  A    between atoms: _267  and  _269
REMARK  114  A    between atoms: _269  and  _270
REMARK  115  A    between atoms: _269  and  _272
REMARK  116  A    between atoms: _272  and  _273
REMARK  117  A    between atoms: _273  and  _274
REMARK  118  A    between atoms: _276  and  _278
REMARK  119  A    between atoms: _278  and  _279
REMARK  120  A    between atoms: _278  and  _281
REMARK  121  A    between atoms: _281  and  _282
REMARK  122  A    between atoms: _285  and  _287
REMARK  123  A    between atoms: _287  and  _288
REMARK  124  A    between atoms: _291  and  _293
REMARK  125  A    between atoms: _293  and  _294
REMARK  126  A    between atoms: _293  and  _296
REMARK  127  A    between atoms: _296  and  _297
REMARK  128  A    between atoms: _300  and  _302
REMARK  129  A    between atoms: _302  and  _303
REMARK  130  A    between atoms: _302  and  _305
REMARK  131  A    between atoms: _305  and  _306
REMARK  132  A    between atoms: _309  and  _311
REMARK  133  A    between atoms: _311  and  _312
REMARK  134  A    between atoms: _315  and  _317
REMARK  135  A    between atoms: _317  and  _318
REMARK  136  A    between atoms: _320  and  _322
REMARK  137  A    between atoms: _322  and  _323
REMARK  138  A    between atoms: _322  and  _325
REMARK  139  A    between atoms: _328  and  _330
REMARK  140  A    between atoms: _330  and  _331
REMARK  141  A    between atoms: _330  and  _333
REMARK  142  A    between atoms: _333  and  _334
REMARK  143  A    between atoms: _334  and  _335
REMARK                            x       y       z     vdW  Elec       q    Type
REMARK                         _______ _______ _______ _____ _____    ______ ____
ROOT
ATOM      1  CA  ILE A   1      -3.892  58.056  54.094  0.00  0.00    +0.133 C 
ENDROOT
BRANCH   1   2
ATOM      2  N   ILE A   1      -3.939  56.584  54.109  0.00  0.00    -0.239 NA
ATOM      3  H   ILE A   1      -3.799  56.046  53.230  0.00  0.00    +0.142 HD
ENDBRANCH   1   2
BRANCH   1   4
ATOM      4  C   ILE A   1      -5.356  58.529  54.040  0.00  0.00    +0.224 C 
ATOM      5  O   ILE A   1      -6.012  58.418  53.000  0.00  0.00    -0.287 OA
ENDBRANCH   1   4
BRANCH   1   6
ATOM      6  CB  ILE A   1      -3.102  58.604  52.875  0.00  0.00    +0.023 C 
ATOM      7  CG2 ILE A   1      -3.228  60.118  52.801  0.00  0.00    +0.002 C 
BRANCH   6   8
ATOM      8  CG1 ILE A   1      -1.622  58.186  52.941  0.00  0.00    +0.002 C 
ATOM      9  CD1 ILE A   1      -0.837  58.810  54.103  0.00  0.00    +0.000 C 
ENDBRANCH   6   8
ENDBRANCH   1   6
TORSDOF 4
REMARK  Name = ../refined-set-2016/1lcp/1lcp_pocket.pdb
REMARK  143 active torsions:
REMARK  status: ('A' for Active; 'I' for Inactive)
REMARK    1  A    between atoms: _1  and  _3
REMARK    2  A    between atoms: _3  and  _4
REMARK    3  A    between atoms: _3  and  _6
REMARK    4  A    between atoms: _6  and  _7
REMARK    5  A    between atoms: _7  and  _8
REMARK    6  A    between atoms: _8  and  _9
REMARK    7  A    between atoms: _9  and  _10
REMARK    8  A    between atoms: _14  and  _16
REMARK    9  A    between atoms: _16  and  _17
REMARK   10  A    between atoms: _16  and  _19
REMARK   11  A    between atoms: _19  and  _20
REMARK   12  A    between atoms: _23  and  _25
REMARK   13  A    between atoms: _25  and  _26
REMARK   14  A    between atoms: _25  and  _28
REMARK   15  A    between atoms: _28  and  _29
REMARK   16  A    between atoms: _35  and  _37
REMARK   17  A    between atoms: _37  and  _38
REMARK   18  A    between atoms: _37  and  _40
REMARK   19  A    between atoms: _40  and  _41
REMARK   20  A    between atoms: _41  and  _43
REMARK   21  A    between atoms: _43  and  ZN_337
REMARK   22  A    between atoms: _44  and  _46
REMARK   23  A    between atoms: _46  and  _47
REMARK   24  A    between atoms: _46  and  _49
REMARK   25  A    between atoms: _49  and  _50
REMARK   26  A    between atoms: _52  and  _54
REMARK   27  A    between atoms: _54  and  _55
REMARK   28  A    between atoms: _57  and  _59
REMARK   29  A    between atoms: _59  and  _60
REMARK   30  A    between atoms: _59  and  _62
REMARK   31  A    between atoms: _62  and  _63
REMARK   32  A    between atoms: _65  and  _67
REMARK   33  A    between atoms: _67  and  _68
REMARK   34  A    between atoms: _67  and  _70
REMARK   35  A    between atoms: _70  and  _71
REMARK   36  A    between atoms: _71  and  _72
REMARK   37  A    between atoms: _72  and  _73
REMARK   38  A    between atoms: _73  and  _74
REMARK   39  A    between atoms: _78  and  _80
REMARK   40  A    between atoms: _80  and  _81
REMARK   41  A    between atoms: _80  and  _83
REMARK   42  A    between atoms: _83  and  _84
REMARK   43  A    between atoms: _89  and  _91
REMARK   44  A    between atoms: _91  and  _92
REMARK   45  A    between atoms: _91  and  _94
REMARK   46  A    between atoms: _94  and  _95
REMARK   47  A    between atoms: _98  and  _100
REMARK   48  A    between atoms: _100  and  _101
REMARK   49  A    between atoms: _100  and  _103
REMARK   50  A    between atoms: _103  and  _104
REMARK   51  A    between atoms: _104  and  _105
REMARK   52  A    between atoms: _107  and  _109
REMARK   53  A    between atoms: _109  and  _110
REMARK   54  A    between atoms: _113  and  _115
REMARK   55  A    between atoms: _115  and  _116
REMARK   56  A    between atoms: _115  and  _118
REMARK   57  A    between atoms: _118  and  _119
REMARK   58  A    between atoms: _119  and  _121
REMARK   59  A    between atoms: _121  and  ZN_338
REMARK   60  A    between atoms: _122  and  _124
REMARK   61  A    between atoms: _124  and  _125
REMARK   62  A    between atoms: _124  and  _127
REMARK   63  A    between atoms: _127  and  _128
REMARK   64  A    between atoms: _128  and  _129
REMARK   65  A    between atoms: _131  and  _133
REMARK   66  A    between atoms: _133  and  _134
REMARK   67  A    between atoms: _136  and  _138
REMARK   68  A    between atoms: _138  and  _139
REMARK   69  A    between atoms: _138  and  _141
REMARK   70  A    between atoms: _141  and  _142
REMARK   71  A    between atoms: _147  and  _149
REMARK   72  A    between atoms: _149  and  _150
REMARK   73  A    between atoms: _149  and  _152
REMARK   74  A    between atoms: _152  and  _153
REMARK   75  A    between atoms: _158  and  _160
REMARK   76  A    between atoms: _160  and  _161
REMARK   77  A    between atoms: _160  and  _163
REMARK   78  A    between atoms: _163  and  _164
REMARK   79  A    between atoms: _167  and  _169
REMARK   80  A    between atoms: _184  and  _185
REMARK   81  A    between atoms: _189  and  _191
REMARK   82  A    between atoms: _191  and  ZN_338
REMARK   83  A    between atoms: _192  and  _194
REMARK   84  A    between atoms: _194  and  _195
REMARK   85  A    between atoms: _197  and  _199
REMARK   86  A    between atoms: _199  and  _200
REMARK   87  A    between atoms: _199  and  _202
REMARK   88  A    between atoms: _202  and  _203
REMARK   89  A    between atoms: _203  and  _204
REMARK   90  A    between atoms: _204  and  _205
REMARK   91  A    between atoms: _214  and  _216
REMARK   92  A    between atoms: _216  and  _217
REMARK   93  A    between atoms: _216  and  _219
REMARK   94  A    between atoms: _219  and  _220
REMARK   95  A    between atoms: _223  and  _225
REMARK   96  A    between atoms: _225  and  _226
REMARK   97  A    between atoms: _229  and  _231
REMARK   98  A    between atoms: _231  and  _232
REMARK   99  A    between atoms: _231  and  _234
REMARK  100  A    between atoms: _234  and  _235
REMARK  101  A    between atoms: _238  and  _240
REMARK  102  A    between atoms: _240  and  _241
REMARK  103  A    between atoms: _240  and  _243
REMARK  104  A    between atoms: _243  and  _244
REMARK  105  A    between atoms: _247  and  _249
REMARK  106  A    between atoms: _249  and  _250
REMARK  107  A    between atoms: _249  and  _252
REMARK  108  A    between atoms: _252  and  _253
REMARK  109  A    between atoms: _256  and  _258
REMARK  110  A    between atoms: _258  and  _259
REMARK  111  A    between atoms: _261  and  _263
REMARK  112  A    between atoms: _263  and  _264
REMARK  113  A    between atoms: _267  and  _269
REMARK  114  A    between atoms: _269  and  _270
REMARK  115  A    between atoms: _269  and  _272
REMARK  116  A    between atoms: _272  and  _273
REMARK  117  A    between atoms: _273  and  _274
REMARK  118  A    between atoms: _276  and  _278
REMARK  119  A    between atoms: _278  and  _279
REMARK  120  A    between atoms: _278  and  _281
REMARK  121  A    between atoms: _281  and  _282
REMARK  122  A    between atoms: _285  and  _287
REMARK  123  A    between atoms: _287  and  _288
REMARK  124  A    between atoms: _291  and  _293
REMARK  125  A    between atoms: _293  and  _294
REMARK  126  A    between atoms: _293  and  _296
REMARK  127  A    between atoms: _296  and  _297
REMARK  128  A    between atoms: _300  and  _302
REMARK  129  A    between atoms: _302  and  _303
REMARK  130  A    between atoms: _302  and  _305
REMARK  131  A    between atoms: _305  and  _306
REMARK  132  A    between atoms: _309  and  _311
REMARK  133  A    between atoms: _311  and  _312
REMARK  134  A    between atoms: _315  and  _317
REMARK  135  A    between atoms: _317  and  _318
REMARK  136  A    between atoms: _320  and  _322
REMARK  137  A    between atoms: _322  and  _323
REMARK  138  A    between atoms: _322  and  _325
REMARK  139  A    between atoms: _328  and  _330
REMARK  140  A    between atoms: _330  and  _331
REMARK  141  A    between atoms: _330  and  _333
REMARK  142  A    between atoms: _333  and  _334
REMARK  143  A    between atoms: _334  and  _335
REMARK                            x       y       z     vdW  Elec       q    Type
REMARK                         _______ _______ _______ _____ _____    ______ ____
ROOT
ATOM      1 ZN   UNK A   2       0.253  61.744  47.482  0.00  0.00    +0.000 Zn
ATOM      2  O   UNK A   2       1.035  61.262  49.266  0.00  0.00    +0.000 OA
ATOM      3  C   UNK A   2       0.662  60.403  50.087  0.00  0.00    +0.000 C 
ATOM      4  C   UNK A   2       1.324  60.357  51.459  0.00  0.00    +0.000 C 
ATOM      5  C   UNK A   2       2.833  60.658  51.443  0.00  0.00    +0.000 C 
ATOM      6  C   UNK A   2       3.717  59.679  50.657  0.00  0.00    +0.000 C 
ATOM      7  N   UNK A   2       3.764  60.074  49.255  0.00  0.00    +0.000 N 
ATOM      8  H   UNK A   2       2.942  60.553  48.835  0.00  0.00    +0.000 HD
ATOM      9  C   ALA A   1       4.831  59.837  48.500  0.00  0.00    +0.000 C 
ATOM     10  O   ALA A   1       5.817  59.209  48.906  0.00  0.00    +0.000 OA
ATOM     11  CA  ALA A   1       4.757  60.388  47.074  0.00  0.00    +0.000 C 
ATOM     12  N   ALA A   1       4.515  61.811  47.325  0.00  0.00    +0.000 NA
ATOM     13  H   ALA A   1       5.311  62.435  47.567  0.00  0.00    +0.000 HD
ATOM     14  C   UNK A   0       3.287  62.311  47.246  0.00  0.00    +0.000 C 
ATOM     15  C   UNK A   0       3.107  63.800  47.614  0.00  0.00    +0.000 C 
ATOM     16  C   UNK A   0       2.539  64.613  46.443  0.00  0.00    +0.000 C 
ATOM     17  C   UNK A   0       1.082  64.281  46.127  0.00  0.00    +0.000 C 
ATOM     18  O   UNK A   0       0.638  64.650  45.017  0.00  0.00    +0.000 OA
ATOM     19  CB  ALA A   1       6.084  60.183  46.330  0.00  0.00    +0.000 C 
ATOM     20  O   UNK A   2       0.374  63.693  46.974  0.00  0.00    +0.000 OA
ATOM     21  O   UNK A   2       2.345  61.634  46.832  0.00  0.00    +0.000 OA
ENDROOT
BRANCH  15  22
ATOM     22  N   UNK A   0       4.353  64.422  48.080  0.00  0.00    +0.000 N 
ATOM     23  C   UNK A   0       4.766  64.344  49.348  0.00  0.00    +0.000 C 
ATOM     24  O   UNK A   0       4.133  63.765  50.234  0.00  0.00    +0.000 OA
ATOM     25  H   UNK A   0       4.937  64.944  47.396  0.00  0.00    +0.000 HD
BRANCH  23  26
ATOM     26  C   UNK A   0       6.095  65.031  49.671  0.00  0.00    +0.000 C 
BRANCH  26  27
ATOM     27  N   UNK A   0       6.906  65.366  48.489  0.00  0.00    +0.000 N 
ATOM     28  H   UNK A   0       7.065  66.366  48.253  0.00  0.00    +0.000 HD
ATOM     29  C   UNK A   0       7.443  64.425  47.713  0.00  0.00    +0.000 C 
ATOM     30  O   UNK A   0       7.232  63.219  47.882  0.00  0.00    +0.000 OA
BRANCH  29  31
ATOM     31  C   UNK A   0       8.311  64.908  46.544  0.00  0.00    +0.000 C 
BRANCH  31  32
ATOM     32  N   UNK A   0       9.680  64.444  46.806  0.00  0.00    +0.000 NA
ATOM     33  H   UNK A   0       9.828  63.475  47.153  0.00  0.00    +0.000 HD
ENDBRANCH  31  32
BRANCH  31  34
ATOM     34  C   UNK A   0       7.811  64.337  45.206  0.00  0.00    +0.000 C 
BRANCH  34  35
ATOM     35  C   UNK A   0       6.500  64.962  44.748  0.00  0.00    +0.000 C 
ATOM     36  N   UNK A   0       5.483  64.834  45.569  0.00  0.00    +0.000 N 
ATOM     37  H   UNK A   0       5.607  64.343  46.477  0.00  0.00    +0.000 HD
ATOM     38  H   UNK A   0       4.554  65.224  45.311  0.00  0.00    +0.000 HD
ATOM     39  O   UNK A   0       6.402  65.539  43.654  0.00  0.00    +0.000 OA
ENDBRANCH  34  35
ENDBRANCH  31  34
ENDBRANCH  29  31
ENDBRANCH  26  27
BRANCH  26  40
ATOM     40  C   UNK A   0       5.844  66.285  50.570  0.00  0.00    +0.000 C 
ATOM     41  C   UNK A   0       7.175  67.008  50.893  0.00  0.00    +0.000 C 
BRANCH  40  42
ATOM     42  O   UNK A   0       4.971  67.210  49.903  0.00  0.00    +0.000 OA
ATOM     43  H   UNK A   0       4.105  66.768  49.715  0.00  0.00    +0.000 HD
ENDBRANCH  40  42
ENDBRANCH  26  40
ENDBRANCH  23  26
ENDBRANCH  15  22
BRANCH   6  44
ATOM     44  C   UNK A   2       3.317  58.247  50.974  0.00  0.00    +0.000 C 
ATOM     45  O   UNK A   2       3.647  57.740  52.055  0.00  0.00    +0.000 OA
ATOM     46  N   MET A   3       2.568  57.618  50.072  0.00  0.00    +0.000 N 
ATOM     47  H   MET A   3       2.298  58.108  49.195  0.00  0.00    +0.000 HD
BRANCH  46  48
ATOM     48  CA  MET A   3       2.124  56.254  50.299  0.00  0.00    +0.000 C 
BRANCH  48  49
ATOM     49  C   MET A   3       3.281  55.290  50.484  0.00  0.00    +0.000 C 
ATOM     50  O   MET A   3       3.284  54.470  51.409  0.00  0.00    +0.000 OA
ATOM     51  N   GLY A   4       4.294  55.409  49.635  0.00  0.00    +0.000 N 
ATOM     52  H   GLY A   4       4.268  56.135  48.891  0.00  0.00    +0.000 HD
BRANCH  51  53
ATOM     53  CA  GLY A   4       5.442  54.521  49.748  0.00  0.00    +0.000 C 
BRANCH  53  54
ATOM     54  C   GLY A   4       6.230  54.767  51.043  0.00  0.00    +0.000 C 
ATOM     55  O   GLY A   4       6.836  53.843  51.591  0.00  0.00    +0.000 OA
ATOM     56  N   LEU A   5       6.166  55.991  51.563  0.00  0.00    +0.000 N 
ATOM     57  H   LEU A   5       5.617  56.726  51.074  0.00  0.00    +0.000 HD
BRANCH  56  58
ATOM     58  CA  LEU A   5       6.856  56.319  52.812  0.00  0.00    +0.000 C 
BRANCH  58  59
ATOM     59  C   LEU A   5       6.199  55.614  54.009  0.00  0.00    +0.000 C 
ATOM     60  O   LEU A   5       6.893  55.027  54.845  0.00  0.00    +0.000 OA
ENDBRANCH  58  59
BRANCH  58  61
ATOM     61  CB  LEU A   5       6.878  57.837  53.049  0.00  0.00    +0.000 C 
BRANCH  61  62
ATOM     62  CG  LEU A   5       7.629  58.707  52.033  0.00  0.00    +0.000 C 
ATOM     63  CD2 LEU A   5       7.542  60.185  52.440  0.00  0.00    +0.000 C 
ATOM     64  CD1 LEU A   5       9.080  58.246  51.943  0.00  0.00    +0.000 C 
ENDBRANCH  61  62
ENDBRANCH  58  61
ENDBRANCH  56  58
ENDBRANCH  53  54
BRANCH  53  65
ATOM     65  CB  GLY A   4       6.327  54.616  48.503  0.00  0.00    +0.000 C 
BRANCH  65  66
ATOM     66  CG  GLY A   4       7.066  55.904  48.314  0.00  0.00    +0.000 C 
BRANCH  66  67
ATOM     67  CD  GLY A   4       7.603  55.985  46.880  0.00  0.00    +0.000 C 
BRANCH  67  68
ATOM     68  NE  GLY A   4       6.543  56.344  45.939  0.00  0.00    +0.330 N 
ATOM     69  HE  GLY A   4       5.603  56.553  46.332  0.00  0.00    +0.000 HD
ATOM     70  CZ  GLY A   4       6.689  56.424  44.617  0.00  0.00    +0.000 C 
ATOM     71  NH2 GLY A   4       7.848  56.129  44.031  0.00  0.00    +0.330 N 
ATOM     72 HH21 GLY A   4       8.661  55.830  44.607  0.00  0.00    +0.000 HD
ATOM     73 HH22 GLY A   4       7.941  56.198  42.997  0.00  0.00    +0.000 HD
ATOM     74  NH1 GLY A   4       5.656  56.779  43.871  0.00  0.00    +0.330 N 
ATOM     75 HH11 GLY A   4       4.741  56.992  44.317  0.00  0.00    +0.000 HD
ATOM     76 HH12 GLY A   4       5.759  56.845  42.838  0.00  0.00    +0.000 HD
ENDBRANCH  67  68
ENDBRANCH  66  67
ENDBRANCH  65  66
ENDBRANCH  53  65
ENDBRANCH  51  53
ENDBRANCH  48  49
ENDBRANCH  46  48
ENDBRANCH   6  44
BRANCH   3  77
ATOM     77  O   UNK A   2      -0.254  59.583  49.860  0.00  0.00    +0.000 OA
BRANCH  77  78
ATOM     78 ZN   UNK A   2      -1.470  58.969  48.295  0.00  0.00    +0.000 Zn
BRANCH  78  79
ATOM     79  O   UNK A   2      -3.235  59.057  49.461  0.00  0.00    +0.000 OA
BRANCH  79  80
ATOM     80  C   UNK A   2      -4.230  58.415  49.073  0.00  0.00    +0.000 C 
ATOM     81  O   UNK A   2      -4.176  57.585  48.129  0.00  0.00    +0.000 OA
BRANCH  80  82
ATOM     82  C   UNK A   2      -5.561  58.678  49.777  0.00  0.00    +0.000 C 
BRANCH  82  83
ATOM     83  C   UNK A   2      -6.500  57.471  49.726  0.00  0.00    +0.000 C 
BRANCH  83  84
ATOM     84  C   UNK A   2      -6.161  56.454  50.832  0.00  0.00    +0.000 C 
ATOM     85  N   MET A   3      -7.198  56.024  51.550  0.00  0.00    +0.000 N 
ATOM     86  H   MET A   3      -8.133  56.440  51.364  0.00  0.00    +0.000 HD
ATOM     87  O   UNK A   2      -4.995  56.094  51.042  0.00  0.00    +0.000 OA
BRANCH  85  88
ATOM     88  CA  MET A   3      -7.089  55.000  52.583  0.00  0.00    +0.000 C 
BRANCH  88  89
ATOM     89  C   MET A   3      -7.774  53.706  52.066  0.00  0.00    +0.000 C 
ATOM     90  O   MET A   3      -8.049  52.775  52.839  0.00  0.00    +0.000 OA
ATOM     91  N   GLY A   4      -8.008  53.642  50.751  0.00  0.00    +0.000 N 
ATOM     92  H   GLY A   4      -7.734  54.442  50.146  0.00  0.00    +0.000 HD
BRANCH  91  93
ATOM     93  CA  GLY A   4      -8.640  52.474  50.147  0.00  0.00    +0.000 C 
BRANCH  93  94
ATOM     94  C   GLY A   4      -7.910  51.145  50.362  0.00  0.00    +0.000 C 
ATOM     95  O   GLY A   4      -8.550  50.099  50.504  0.00  0.00    +0.000 OA
ENDBRANCH  93  94
ENDBRANCH  91  93
ENDBRANCH  88  89
BRANCH  88  96
ATOM     96  CB  MET A   3      -7.724  55.475  53.907  0.00  0.00    +0.000 C 
BRANCH  96  97
ATOM     97  CG  MET A   3      -8.950  56.396  53.760  0.00  0.00    +0.000 C 
BRANCH  97  98
ATOM     98  SD  MET A   3     -10.379  55.685  52.867  0.00  0.00    +0.000 S 
ATOM     99  CE  MET A   3     -10.866  54.383  54.012  0.00  0.00    +0.000 C 
ENDBRANCH  97  98
ENDBRANCH  96  97
ENDBRANCH  88  96
ENDBRANCH  85  88
ENDBRANCH  83  84
BRANCH  83 100
ATOM    100  N   UNK A   2      -7.907  57.887  49.768  0.00  0.00    +0.000 N 
ATOM    101  H   UNK A   2      -8.154  58.825  50.142  0.00  0.00    +0.000 HD
ATOM    102  C   ALA A   1      -8.872  57.076  49.332  0.00  0.00    +0.000 C 
ATOM    103  O   ALA A   1      -8.646  55.924  48.920  0.00  0.00    +0.000 OA
BRANCH 102 104
ATOM    104  CA  ALA A   1     -10.313  57.592  49.433  0.00  0.00    +0.000 C 
ATOM    105  CB  ALA A   1     -11.104  57.188  48.192  0.00  0.00    +0.000 C 
BRANCH 104 106
ATOM    106  N   ALA A   1     -10.400  59.035  49.639  0.00  0.00    +0.000 NA
ATOM    107  H   ALA A   1     -10.337  59.663  48.812  0.00  0.00    +0.000 HD
ENDBRANCH 104 106
ENDBRANCH 102 104
ENDBRANCH  83 100
ENDBRANCH  82  83
ENDBRANCH  80  82
ENDBRANCH  79  80
ENDBRANCH  78  79
ENDBRANCH  77  78
ENDBRANCH   3  77
BRANCH   1 108
ATOM    108  O   UNK A   2      -1.729  61.656  48.234  0.00  0.00    +0.000 OA
BRANCH 108 109
ATOM    109  C   UNK A   2      -2.087  62.396  49.173  0.00  0.00    +0.000 C 
ATOM    110  O   UNK A   2      -1.329  63.269  49.679  0.00  0.00    +0.000 OA
BRANCH 109 111
ATOM    111  C   UNK A   2      -3.517  62.215  49.708  0.00  0.00    +0.000 C 
BRANCH 111 112
ATOM    112  C   UNK A   2      -3.945  63.329  50.684  0.00  0.00    +0.000 C 
BRANCH 112 115
ATOM    113  C   ALA A   1      -5.361  62.919  52.618  0.00  0.00    +0.000 C 
ATOM    114  O   ALA A   1      -4.450  63.164  53.404  0.00  0.00    +0.000 OA
ATOM    115  N   UNK A   2      -5.220  62.983  51.300  0.00  0.00    +0.000 N 
ATOM    116  H   UNK A   2      -6.039  62.781  50.692  0.00  0.00    +0.000 HD
BRANCH 113 117
ATOM    117  CA  ALA A   1      -6.739  62.541  53.137  0.00  0.00    +0.000 C 
BRANCH 117 118
ATOM    118  N   ALA A   1      -6.615  61.449  54.096  0.00  0.00    +0.000 NA
ATOM    119  H   ALA A   1      -5.711  61.317  54.593  0.00  0.00    +0.000 HD
ENDBRANCH 117 118
BRANCH 117 120
ATOM    120  CB  ALA A   1      -7.438  63.803  53.638  0.00  0.00    +0.000 C 
BRANCH 120 121
ATOM    121  CG  ALA A   1      -7.728  64.767  52.513  0.00  0.00    +0.000 A 
ATOM    122  CD2 ALA A   1      -6.887  65.854  52.259  0.00  0.00    +0.000 A 
ATOM    123  CE2 ALA A   1      -7.060  66.641  51.106  0.00  0.00    +0.000 A 
ATOM    124  CZ  ALA A   1      -8.085  66.342  50.206  0.00  0.00    +0.000 A 
ATOM    125  CE1 ALA A   1      -8.937  65.267  50.454  0.00  0.00    +0.000 A 
ATOM    126  CD1 ALA A   1      -8.755  64.489  51.606  0.00  0.00    +0.000 A 
ENDBRANCH 120 121
ENDBRANCH 117 120
ENDBRANCH 113 117
ENDBRANCH 112 115
BRANCH 112 127
ATOM    127  C   UNK A   2      -4.020  64.657  49.934  0.00  0.00    +0.000 C 
ATOM    128  N   MET A   3      -3.465  65.709  50.533  0.00  0.00    +0.000 N 
ATOM    129  H   MET A   3      -3.044  65.586  51.476  0.00  0.00    +0.000 HD
ATOM    130  O   UNK A   2      -4.566  64.716  48.820  0.00  0.00    +0.000 OA
BRANCH 128 131
ATOM    131  CA  MET A   3      -3.427  67.035  49.908  0.00  0.00    +0.000 C 
BRANCH 131 132
ATOM    132  C   MET A   3      -2.123  67.194  49.121  0.00  0.00    +0.000 C 
ATOM    133  N   GLY A   4      -1.193  66.261  49.325  0.00  0.00    +0.000 N 
ATOM    134  H   GLY A   4      -1.401  65.466  49.963  0.00  0.00    +0.000 HD
ATOM    135  O   MET A   3      -1.946  68.178  48.397  0.00  0.00    +0.000 OA
BRANCH 133 136
ATOM    136  CA  GLY A   4       0.106  66.330  48.675  0.00  0.00    +0.000 C 
BRANCH 136 137
ATOM    137  C   GLY A   4       1.166  66.935  49.596  0.00  0.00    +0.000 C 
ATOM    138  O   GLY A   4       2.368  66.676  49.435  0.00  0.00    +0.000 OA
ENDBRANCH 136 137
ENDBRANCH 133 136
ENDBRANCH 131 132
BRANCH 131 139
ATOM    139  CB  MET A   3      -3.465  68.130  50.980  0.00  0.00    +0.000 C 
BRANCH 139 140
ATOM    140  O   MET A   3      -2.182  68.292  51.593  0.00  0.00    +0.000 OA
ATOM    141  H   MET A   3      -1.911  67.440  52.018  0.00  0.00    +0.000 HD
ENDBRANCH 139 140
ENDBRANCH 131 139
ENDBRANCH 128 131
ENDBRANCH 112 127
ENDBRANCH 111 112
ENDBRANCH 109 111
ENDBRANCH 108 109
ENDBRANCH   1 108
TORSDOF 55
REMARK  Name = ../refined-set-2016/1lcp/1lcp_pocket.pdb
REMARK  143 active torsions:
REMARK  status: ('A' for Active; 'I' for Inactive)
REMARK    1  A    between atoms: _1  and  _3
REMARK    2  A    between atoms: _3  and  _4
REMARK    3  A    between atoms: _3  and  _6
REMARK    4  A    between atoms: _6  and  _7
REMARK    5  A    between atoms: _7  and  _8
REMARK    6  A    between atoms: _8  and  _9
REMARK    7  A    between atoms: _9  and  _10
REMARK    8  A    between atoms: _14  and  _16
REMARK    9  A    between atoms: _16  and  _17
REMARK   10  A    between atoms: _16  and  _19
REMARK   11  A    between atoms: _19  and  _20
REMARK   12  A    between atoms: _23  and  _25
REMARK   13  A    between atoms: _25  and  _26
REMARK   14  A    between atoms: _25  and  _28
REMARK   15  A    between atoms: _28  and  _29
REMARK   16  A    between atoms: _35  and  _37
REMARK   17  A    between atoms: _37  and  _38
REMARK   18  A    between atoms: _37  and  _40
REMARK   19  A    between atoms: _40  and  _41
REMARK   20  A    between atoms: _41  and  _43
REMARK   21  A    between atoms: _43  and  ZN_337
REMARK   22  A    between atoms: _44  and  _46
REMARK   23  A    between atoms: _46  and  _47
REMARK   24  A    between atoms: _46  and  _49
REMARK   25  A    between atoms: _49  and  _50
REMARK   26  A    between atoms: _52  and  _54
REMARK   27  A    between atoms: _54  and  _55
REMARK   28  A    between atoms: _57  and  _59
REMARK   29  A    between atoms: _59  and  _60
REMARK   30  A    between atoms: _59  and  _62
REMARK   31  A    between atoms: _62  and  _63
REMARK   32  A    between atoms: _65  and  _67
REMARK   33  A    between atoms: _67  and  _68
REMARK   34  A    between atoms: _67  and  _70
REMARK   35  A    between atoms: _70  and  _71
REMARK   36  A    between atoms: _71  and  _72
REMARK   37  A    between atoms: _72  and  _73
REMARK   38  A    between atoms: _73  and  _74
REMARK   39  A    between atoms: _78  and  _80
REMARK   40  A    between atoms: _80  and  _81
REMARK   41  A    between atoms: _80  and  _83
REMARK   42  A    between atoms: _83  and  _84
REMARK   43  A    between atoms: _89  and  _91
REMARK   44  A    between atoms: _91  and  _92
REMARK   45  A    between atoms: _91  and  _94
REMARK   46  A    between atoms: _94  and  _95
REMARK   47  A    between atoms: _98  and  _100
REMARK   48  A    between atoms: _100  and  _101
REMARK   49  A    between atoms: _100  and  _103
REMARK   50  A    between atoms: _103  and  _104
REMARK   51  A    between atoms: _104  and  _105
REMARK   52  A    between atoms: _107  and  _109
REMARK   53  A    between atoms: _109  and  _110
REMARK   54  A    between atoms: _113  and  _115
REMARK   55  A    between atoms: _115  and  _116
REMARK   56  A    between atoms: _115  and  _118
REMARK   57  A    between atoms: _118  and  _119
REMARK   58  A    between atoms: _119  and  _121
REMARK   59  A    between atoms: _121  and  ZN_338
REMARK   60  A    between atoms: _122  and  _124
REMARK   61  A    between atoms: _124  and  _125
REMARK   62  A    between atoms: _124  and  _127
REMARK   63  A    between atoms: _127  and  _128
REMARK   64  A    between atoms: _128  and  _129
REMARK   65  A    between atoms: _131  and  _133
REMARK   66  A    between atoms: _133  and  _134
REMARK   67  A    between atoms: _136  and  _138
REMARK   68  A    between atoms: _138  and  _139
REMARK   69  A    between atoms: _138  and  _141
REMARK   70  A    between atoms: _141  and  _142
REMARK   71  A    between atoms: _147  and  _149
REMARK   72  A    between atoms: _149  and  _150
REMARK   73  A    between atoms: _149  and  _152
REMARK   74  A    between atoms: _152  and  _153
REMARK   75  A    between atoms: _158  and  _160
REMARK   76  A    between atoms: _160  and  _161
REMARK   77  A    between atoms: _160  and  _163
REMARK   78  A    between atoms: _163  and  _164
REMARK   79  A    between atoms: _167  and  _169
REMARK   80  A    between atoms: _184  and  _185
REMARK   81  A    between atoms: _189  and  _191
REMARK   82  A    between atoms: _191  and  ZN_338
REMARK   83  A    between atoms: _192  and  _194
REMARK   84  A    between atoms: _194  and  _195
REMARK   85  A    between atoms: _197  and  _199
REMARK   86  A    between atoms: _199  and  _200
REMARK   87  A    between atoms: _199  and  _202
REMARK   88  A    between atoms: _202  and  _203
REMARK   89  A    between atoms: _203  and  _204
REMARK   90  A    between atoms: _204  and  _205
REMARK   91  A    between atoms: _214  and  _216
REMARK   92  A    between atoms: _216  and  _217
REMARK   93  A    between atoms: _216  and  _219
REMARK   94  A    between atoms: _219  and  _220
REMARK   95  A    between atoms: _223  and  _225
REMARK   96  A    between atoms: _225  and  _226
REMARK   97  A    between atoms: _229  and  _231
REMARK   98  A    between atoms: _231  and  _232
REMARK   99  A    between atoms: _231  and  _234
REMARK  100  A    between atoms: _234  and  _235
REMARK  101  A    between atoms: _238  and  _240
REMARK  102  A    between atoms: _240  and  _241
REMARK  103  A    between atoms: _240  and  _243
REMARK  104  A    between atoms: _243  and  _244
REMARK  105  A    between atoms: _247  and  _249
REMARK  106  A    between atoms: _249  and  _250
REMARK  107  A    between atoms: _249  and  _252
REMARK  108  A    between atoms: _252  and  _253
REMARK  109  A    between atoms: _256  and  _258
REMARK  110  A    between atoms: _258  and  _259
REMARK  111  A    between atoms: _261  and  _263
REMARK  112  A    between atoms: _263  and  _264
REMARK  113  A    between atoms: _267  and  _269
REMARK  114  A    between atoms: _269  and  _270
REMARK  115  A    between atoms: _269  and  _272
REMARK  116  A    between atoms: _272  and  _273
REMARK  117  A    between atoms: _273  and  _274
REMARK  118  A    between atoms: _276  and  _278
REMARK  119  A    between atoms: _278  and  _279
REMARK  120  A    between atoms: _278  and  _281
REMARK  121  A    between atoms: _281  and  _282
REMARK  122  A    between atoms: _285  and  _287
REMARK  123  A    between atoms: _287  and  _288
REMARK  124  A    between atoms: _291  and  _293
REMARK  125  A    between atoms: _293  and  _294
REMARK  126  A    between atoms: _293  and  _296
REMARK  127  A    between atoms: _296  and  _297
REMARK  128  A    between atoms: _300  and  _302
REMARK  129  A    between atoms: _302  and  _303
REMARK  130  A    between atoms: _302  and  _305
REMARK  131  A    between atoms: _305  and  _306
REMARK  132  A    between atoms: _309  and  _311
REMARK  133  A    between atoms: _311  and  _312
REMARK  134  A    between atoms: _315  and  _317
REMARK  135  A    between atoms: _317  and  _318
REMARK  136  A    between atoms: _320  and  _322
REMARK  137  A    between atoms: _322  and  _323
REMARK  138  A    between atoms: _322  and  _325
REMARK  139  A    between atoms: _328  and  _330
REMARK  140  A    between atoms: _330  and  _331
REMARK  141  A    between atoms: _330  and  _333
REMARK  142  A    between atoms: _333  and  _334
REMARK  143  A    between atoms: _334  and  _335
REMARK                            x       y       z     vdW  Elec       q    Type
REMARK                         _______ _______ _______ _____ _____    ______ ____
ROOT
ATOM      1  CA  SER A   1       4.360  69.354  47.076  0.00  0.00    +0.163 C 
ENDROOT
BRANCH   1   2
ATOM      2  N   SER A   1       4.420  69.621  48.521  0.00  0.00    -0.237 NA
ATOM      3  H   SER A   1       4.555  68.819  49.169  0.00  0.00    +0.142 HD
ENDBRANCH   1   2
BRANCH   1   4
ATOM      4  CB  SER A   1       2.833  69.219  46.810  0.00  0.00    +0.227 C 
ATOM      5  OG  SER A   1       2.329  68.152  46.420  0.00  0.00    -0.287 OA
ENDBRANCH   1   4
BRANCH   1   6
ATOM      6  C   SER A   1       5.078  68.030  46.760  0.00  0.00    +0.162 C 
BRANCH   6   7
ATOM      7  O   SER A   1       6.446  68.028  47.178  0.00  0.00    -0.380 OA
ATOM      8  H   SER A   1       6.933  68.755  46.714  0.00  0.00    +0.211 HD
ENDBRANCH   6   7
ENDBRANCH   1   6
TORSDOF 4
REMARK  Name = ../refined-set-2016/1lcp/1lcp_pocket.pdb
REMARK  143 active torsions:
REMARK  status: ('A' for Active; 'I' for Inactive)
REMARK    1  A    between atoms: _1  and  _3
REMARK    2  A    between atoms: _3  and  _4
REMARK    3  A    between atoms: _3  and  _6
REMARK    4  A    between atoms: _6  and  _7
REMARK    5  A    between atoms: _7  and  _8
REMARK    6  A    between atoms: _8  and  _9
REMARK    7  A    between atoms: _9  and  _10
REMARK    8  A    between atoms: _14  and  _16
REMARK    9  A    between atoms: _16  and  _17
REMARK   10  A    between atoms: _16  and  _19
REMARK   11  A    between atoms: _19  and  _20
REMARK   12  A    between atoms: _23  and  _25
REMARK   13  A    between atoms: _25  and  _26
REMARK   14  A    between atoms: _25  and  _28
REMARK   15  A    between atoms: _28  and  _29
REMARK   16  A    between atoms: _35  and  _37
REMARK   17  A    between atoms: _37  and  _38
REMARK   18  A    between atoms: _37  and  _40
REMARK   19  A    between atoms: _40  and  _41
REMARK   20  A    between atoms: _41  and  _43
REMARK   21  A    between atoms: _43  and  ZN_337
REMARK   22  A    between atoms: _44  and  _46
REMARK   23  A    between atoms: _46  and  _47
REMARK   24  A    between atoms: _46  and  _49
REMARK   25  A    between atoms: _49  and  _50
REMARK   26  A    between atoms: _52  and  _54
REMARK   27  A    between atoms: _54  and  _55
REMARK   28  A    between atoms: _57  and  _59
REMARK   29  A    between atoms: _59  and  _60
REMARK   30  A    between atoms: _59  and  _62
REMARK   31  A    between atoms: _62  and  _63
REMARK   32  A    between atoms: _65  and  _67
REMARK   33  A    between atoms: _67  and  _68
REMARK   34  A    between atoms: _67  and  _70
REMARK   35  A    between atoms: _70  and  _71
REMARK   36  A    between atoms: _71  and  _72
REMARK   37  A    between atoms: _72  and  _73
REMARK   38  A    between atoms: _73  and  _74
REMARK   39  A    between atoms: _78  and  _80
REMARK   40  A    between atoms: _80  and  _81
REMARK   41  A    between atoms: _80  and  _83
REMARK   42  A    between atoms: _83  and  _84
REMARK   43  A    between atoms: _89  and  _91
REMARK   44  A    between atoms: _91  and  _92
REMARK   45  A    between atoms: _91  and  _94
REMARK   46  A    between atoms: _94  and  _95
REMARK   47  A    between atoms: _98  and  _100
REMARK   48  A    between atoms: _100  and  _101
REMARK   49  A    between atoms: _100  and  _103
REMARK   50  A    between atoms: _103  and  _104
REMARK   51  A    between atoms: _104  and  _105
REMARK   52  A    between atoms: _107  and  _109
REMARK   53  A    between atoms: _109  and  _110
REMARK   54  A    between atoms: _113  and  _115
REMARK   55  A    between atoms: _115  and  _116
REMARK   56  A    between atoms: _115  and  _118
REMARK   57  A    between atoms: _118  and  _119
REMARK   58  A    between atoms: _119  and  _121
REMARK   59  A    between atoms: _121  and  ZN_338
REMARK   60  A    between atoms: _122  and  _124
REMARK   61  A    between atoms: _124  and  _125
REMARK   62  A    between atoms: _124  and  _127
REMARK   63  A    between atoms: _127  and  _128
REMARK   64  A    between atoms: _128  and  _129
REMARK   65  A    between atoms: _131  and  _133
REMARK   66  A    between atoms: _133  and  _134
REMARK   67  A    between atoms: _136  and  _138
REMARK   68  A    between atoms: _138  and  _139
REMARK   69  A    between atoms: _138  and  _141
REMARK   70  A    between atoms: _141  and  _142
REMARK   71  A    between atoms: _147  and  _149
REMARK   72  A    between atoms: _149  and  _150
REMARK   73  A    between atoms: _149  and  _152
REMARK   74  A    between atoms: _152  and  _153
REMARK   75  A    between atoms: _158  and  _160
REMARK   76  A    between atoms: _160  and  _161
REMARK   77  A    between atoms: _160  and  _163
REMARK   78  A    between atoms: _163  and  _164
REMARK   79  A    between atoms: _167  and  _169
REMARK   80  A    between atoms: _184  and  _185
REMARK   81  A    between atoms: _189  and  _191
REMARK   82  A    between atoms: _191  and  ZN_338
REMARK   83  A    between atoms: _192  and  _194
REMARK   84  A    between atoms: _194  and  _195
REMARK   85  A    between atoms: _197  and  _199
REMARK   86  A    between atoms: _199  and  _200
REMARK   87  A    between atoms: _199  and  _202
REMARK   88  A    between atoms: _202  and  _203
REMARK   89  A    between atoms: _203  and  _204
REMARK   90  A    between atoms: _204  and  _205
REMARK   91  A    between atoms: _214  and  _216
REMARK   92  A    between atoms: _216  and  _217
REMARK   93  A    between atoms: _216  and  _219
REMARK   94  A    between atoms: _219  and  _220
REMARK   95  A    between atoms: _223  and  _225
REMARK   96  A    between atoms: _225  and  _226
REMARK   97  A    between atoms: _229  and  _231
REMARK   98  A    between atoms: _231  and  _232
REMARK   99  A    between atoms: _231  and  _234
REMARK  100  A    between atoms: _234  and  _235
REMARK  101  A    between atoms: _238  and  _240
REMARK  102  A    between atoms: _240  and  _241
REMARK  103  A    between atoms: _240  and  _243
REMARK  104  A    between atoms: _243  and  _244
REMARK  105  A    between atoms: _247  and  _249
REMARK  106  A    between atoms: _249  and  _250
REMARK  107  A    between atoms: _249  and  _252
REMARK  108  A    between atoms: _252  and  _253
REMARK  109  A    between atoms: _256  and  _258
REMARK  110  A    between atoms: _258  and  _259
REMARK  111  A    between atoms: _261  and  _263
REMARK  112  A    between atoms: _263  and  _264
REMARK  113  A    between atoms: _267  and  _269
REMARK  114  A    between atoms: _269  and  _270
REMARK  115  A    between atoms: _269  and  _272
REMARK  116  A    between atoms: _272  and  _273
REMARK  117  A    between atoms: _273  and  _274
REMARK  118  A    between atoms: _276  and  _278
REMARK  119  A    between atoms: _278  and  _279
REMARK  120  A    between atoms: _278  and  _281
REMARK  121  A    between atoms: _281  and  _282
REMARK  122  A    between atoms: _285  and  _287
REMARK  123  A    between atoms: _287  and  _288
REMARK  124  A    between atoms: _291  and  _293
REMARK  125  A    between atoms: _293  and  _294
REMARK  126  A    between atoms: _293  and  _296
REMARK  127  A    between atoms: _296  and  _297
REMARK  128  A    between atoms: _300  and  _302
REMARK  129  A    between atoms: _302  and  _303
REMARK  130  A    between atoms: _302  and  _305
REMARK  131  A    between atoms: _305  and  _306
REMARK  132  A    between atoms: _309  and  _311
REMARK  133  A    between atoms: _311  and  _312
REMARK  134  A    between atoms: _315  and  _317
REMARK  135  A    between atoms: _317  and  _318
REMARK  136  A    between atoms: _320  and  _322
REMARK  137  A    between atoms: _322  and  _323
REMARK  138  A    between atoms: _322  and  _325
REMARK  139  A    between atoms: _328  and  _330
REMARK  140  A    between atoms: _330  and  _331
REMARK  141  A    between atoms: _330  and  _333
REMARK  142  A    between atoms: _333  and  _334
REMARK  143  A    between atoms: _334  and  _335
REMARK                            x       y       z     vdW  Elec       q    Type
REMARK                         _______ _______ _______ _____ _____    ______ ____
ROOT
ATOM      1  CG  LYS A   1      -2.304  66.373  45.340  0.00  0.00    -0.000 C 
ENDROOT
BRANCH   1   2
ATOM      2  CB  LYS A   1      -2.901  67.718  44.988  0.00  0.00    +0.025 C 
BRANCH   2   3
ATOM      3  CA  LYS A   1      -1.886  68.789  44.580  0.00  0.00    +0.133 C 
BRANCH   3   4
ATOM      4  N   LYS A   1      -1.130  69.245  45.746  0.00  0.00    -0.239 NA
ATOM      5  H   LYS A   1      -1.478  69.007  46.697  0.00  0.00    +0.142 HD
ENDBRANCH   3   4
BRANCH   3   6
ATOM      6  C   LYS A   1      -2.671  69.937  43.972  0.00  0.00    +0.224 C 
ATOM      7  O   LYS A   1      -2.883  70.966  44.624  0.00  0.00    -0.287 OA
ENDBRANCH   3   6
ENDBRANCH   2   3
ENDBRANCH   1   2
BRANCH   1   8
ATOM      8  CD  LYS A   1      -3.411  65.352  45.612  0.00  0.00    -0.024 C 
BRANCH   8   9
ATOM      9  CE  LYS A   1      -2.849  63.987  46.005  0.00  0.00    -0.086 C 
BRANCH   9  10
ATOM     10  NZ  LYS A   1      -1.952  63.415  44.964  0.00  0.00    +0.380 N 
ATOM     11  HZ1 LYS A   1      -1.599  62.490  45.282  0.00  0.00    -0.089 HD
ATOM     12  HZ2 LYS A   1      -1.150  64.058  44.808  0.00  0.00    -0.089 HD
ATOM     13  HZ3 LYS A   1      -2.482  63.299  44.077  0.00  0.00    -0.089 HD
ENDBRANCH   9  10
ENDBRANCH   8   9
ENDBRANCH   1   8
TORSDOF 7
REMARK  Name = ../refined-set-2016/1lcp/1lcp_pocket.pdb
REMARK  143 active torsions:
REMARK  status: ('A' for Active; 'I' for Inactive)
REMARK    1  A    between atoms: _1  and  _3
REMARK    2  A    between atoms: _3  and  _4
REMARK    3  A    between atoms: _3  and  _6
REMARK    4  A    between atoms: _6  and  _7
REMARK    5  A    between atoms: _7  and  _8
REMARK    6  A    between atoms: _8  and  _9
REMARK    7  A    between atoms: _9  and  _10
REMARK    8  A    between atoms: _14  and  _16
REMARK    9  A    between atoms: _16  and  _17
REMARK   10  A    between atoms: _16  and  _19
REMARK   11  A    between atoms: _19  and  _20
REMARK   12  A    between atoms: _23  and  _25
REMARK   13  A    between atoms: _25  and  _26
REMARK   14  A    between atoms: _25  and  _28
REMARK   15  A    between atoms: _28  and  _29
REMARK   16  A    between atoms: _35  and  _37
REMARK   17  A    between atoms: _37  and  _38
REMARK   18  A    between atoms: _37  and  _40
REMARK   19  A    between atoms: _40  and  _41
REMARK   20  A    between atoms: _41  and  _43
REMARK   21  A    between atoms: _43  and  ZN_337
REMARK   22  A    between atoms: _44  and  _46
REMARK   23  A    between atoms: _46  and  _47
REMARK   24  A    between atoms: _46  and  _49
REMARK   25  A    between atoms: _49  and  _50
REMARK   26  A    between atoms: _52  and  _54
REMARK   27  A    between atoms: _54  and  _55
REMARK   28  A    between atoms: _57  and  _59
REMARK   29  A    between atoms: _59  and  _60
REMARK   30  A    between atoms: _59  and  _62
REMARK   31  A    between atoms: _62  and  _63
REMARK   32  A    between atoms: _65  and  _67
REMARK   33  A    between atoms: _67  and  _68
REMARK   34  A    between atoms: _67  and  _70
REMARK   35  A    between atoms: _70  and  _71
REMARK   36  A    between atoms: _71  and  _72
REMARK   37  A    between atoms: _72  and  _73
REMARK   38  A    between atoms: _73  and  _74
REMARK   39  A    between atoms: _78  and  _80
REMARK   40  A    between atoms: _80  and  _81
REMARK   41  A    between atoms: _80  and  _83
REMARK   42  A    between atoms: _83  and  _84
REMARK   43  A    between atoms: _89  and  _91
REMARK   44  A    between atoms: _91  and  _92
REMARK   45  A    between atoms: _91  and  _94
REMARK   46  A    between atoms: _94  and  _95
REMARK   47  A    between atoms: _98  and  _100
REMARK   48  A    between atoms: _100  and  _101
REMARK   49  A    between atoms: _100  and  _103
REMARK   50  A    between atoms: _103  and  _104
REMARK   51  A    between atoms: _104  and  _105
REMARK   52  A    between atoms: _107  and  _109
REMARK   53  A    between atoms: _109  and  _110
REMARK   54  A    between atoms: _113  and  _115
REMARK   55  A    between atoms: _115  and  _116
REMARK   56  A    between atoms: _115  and  _118
REMARK   57  A    between atoms: _118  and  _119
REMARK   58  A    between atoms: _119  and  _121
REMARK   59  A    between atoms: _121  and  ZN_338
REMARK   60  A    between atoms: _122  and  _124
REMARK   61  A    between atoms: _124  and  _125
REMARK   62  A    between atoms: _124  and  _127
REMARK   63  A    between atoms: _127  and  _128
REMARK   64  A    between atoms: _128  and  _129
REMARK   65  A    between atoms: _131  and  _133
REMARK   66  A    between atoms: _133  and  _134
REMARK   67  A    between atoms: _136  and  _138
REMARK   68  A    between atoms: _138  and  _139
REMARK   69  A    between atoms: _138  and  _141
REMARK   70  A    between atoms: _141  and  _142
REMARK   71  A    between atoms: _147  and  _149
REMARK   72  A    between atoms: _149  and  _150
REMARK   73  A    between atoms: _149  and  _152
REMARK   74  A    between atoms: _152  and  _153
REMARK   75  A    between atoms: _158  and  _160
REMARK   76  A    between atoms: _160  and  _161
REMARK   77  A    between atoms: _160  and  _163
REMARK   78  A    between atoms: _163  and  _164
REMARK   79  A    between atoms: _167  and  _169
REMARK   80  A    between atoms: _184  and  _185
REMARK   81  A    between atoms: _189  and  _191
REMARK   82  A    between atoms: _191  and  ZN_338
REMARK   83  A    between atoms: _192  and  _194
REMARK   84  A    between atoms: _194  and  _195
REMARK   85  A    between atoms: _197  and  _199
REMARK   86  A    between atoms: _199  and  _200
REMARK   87  A    between atoms: _199  and  _202
REMARK   88  A    between atoms: _202  and  _203
REMARK   89  A    between atoms: _203  and  _204
REMARK   90  A    between atoms: _204  and  _205
REMARK   91  A    between atoms: _214  and  _216
REMARK   92  A    between atoms: _216  and  _217
REMARK   93  A    between atoms: _216  and  _219
REMARK   94  A    between atoms: _219  and  _220
REMARK   95  A    between atoms: _223  and  _225
REMARK   96  A    between atoms: _225  and  _226
REMARK   97  A    between atoms: _229  and  _231
REMARK   98  A    between atoms: _231  and  _232
REMARK   99  A    between atoms: _231  and  _234
REMARK  100  A    between atoms: _234  and  _235
REMARK  101  A    between atoms: _238  and  _240
REMARK  102  A    between atoms: _240  and  _241
REMARK  103  A    between atoms: _240  and  _243
REMARK  104  A    between atoms: _243  and  _244
REMARK  105  A    between atoms: _247  and  _249
REMARK  106  A    between atoms: _249  and  _250
REMARK  107  A    between atoms: _249  and  _252
REMARK  108  A    between atoms: _252  and  _253
REMARK  109  A    between atoms: _256  and  _258
REMARK  110  A    between atoms: _258  and  _259
REMARK  111  A    between atoms: _261  and  _263
REMARK  112  A    between atoms: _263  and  _264
REMARK  113  A    between atoms: _267  and  _269
REMARK  114  A    between atoms: _269  and  _270
REMARK  115  A    between atoms: _269  and  _272
REMARK  116  A    between atoms: _272  and  _273
REMARK  117  A    between atoms: _273  and  _274
REMARK  118  A    between atoms: _276  and  _278
REMARK  119  A    between atoms: _278  and  _279
REMARK  120  A    between atoms: _278  and  _281
REMARK  121  A    between atoms: _281  and  _282
REMARK  122  A    between atoms: _285  and  _287
REMARK  123  A    between atoms: _287  and  _288
REMARK  124  A    between atoms: _291  and  _293
REMARK  125  A    between atoms: _293  and  _294
REMARK  126  A    between atoms: _293  and  _296
REMARK  127  A    between atoms: _296  and  _297
REMARK  128  A    between atoms: _300  and  _302
REMARK  129  A    between atoms: _302  and  _303
REMARK  130  A    between atoms: _302  and  _305
REMARK  131  A    between atoms: _305  and  _306
REMARK  132  A    between atoms: _309  and  _311
REMARK  133  A    between atoms: _311  and  _312
REMARK  134  A    between atoms: _315  and  _317
REMARK  135  A    between atoms: _317  and  _318
REMARK  136  A    between atoms: _320  and  _322
REMARK  137  A    between atoms: _322  and  _323
REMARK  138  A    between atoms: _322  and  _325
REMARK  139  A    between atoms: _328  and  _330
REMARK  140  A    between atoms: _330  and  _331
REMARK  141  A    between atoms: _330  and  _333
REMARK  142  A    between atoms: _333  and  _334
REMARK  143  A    between atoms: _334  and  _335
REMARK                            x       y       z     vdW  Elec       q    Type
REMARK                         _______ _______ _______ _____ _____    ______ ____
ROOT
ATOM      1  CB  ASN A   1     -11.063  65.563  40.713  0.00  0.00    +0.110 C 
ENDROOT
BRANCH   1   2
ATOM      2  CG  ASN A   1     -12.012  65.889  39.571  0.00  0.00    +0.221 C 
ATOM      3  ND2 ASN A   1     -13.296  65.929  39.867  0.00  0.00    -0.329 N 
ATOM      4 HD21 ASN A   1     -13.614  65.714  40.834  0.00  0.00    +0.145 HD
ATOM      5 HD22 ASN A   1     -13.991  66.176  39.134  0.00  0.00    +0.145 HD
ATOM      6  OD1 ASN A   1     -11.586  66.135  38.444  0.00  0.00    -0.275 OA
ENDBRANCH   1   2
BRANCH   1   7
ATOM      7  CA  ASN A   1     -11.136  66.590  41.846  0.00  0.00    +0.142 C 
BRANCH   7   8
ATOM      8  N   ASN A   1     -10.825  67.921  41.333  0.00  0.00    -0.239 NA
ATOM      9  H   ASN A   1     -11.582  68.634  41.318  0.00  0.00    +0.142 HD
ENDBRANCH   7   8
BRANCH   7  10
ATOM     10  C   ASN A   1     -10.292  66.118  43.037  0.00  0.00    +0.225 C 
ATOM     11  O   ASN A   1     -10.206  64.911  43.297  0.00  0.00    -0.287 OA
ENDBRANCH   7  10
ENDBRANCH   1   7
TORSDOF 4
REMARK  Name = ../refined-set-2016/1lcp/1lcp_pocket.pdb
REMARK  143 active torsions:
REMARK  status: ('A' for Active; 'I' for Inactive)
REMARK    1  A    between atoms: _1  and  _3
REMARK    2  A    between atoms: _3  and  _4
REMARK    3  A    between atoms: _3  and  _6
REMARK    4  A    between atoms: _6  and  _7
REMARK    5  A    between atoms: _7  and  _8
REMARK    6  A    between atoms: _8  and  _9
REMARK    7  A    between atoms: _9  and  _10
REMARK    8  A    between atoms: _14  and  _16
REMARK    9  A    between atoms: _16  and  _17
REMARK   10  A    between atoms: _16  and  _19
REMARK   11  A    between atoms: _19  and  _20
REMARK   12  A    between atoms: _23  and  _25
REMARK   13  A    between atoms: _25  and  _26
REMARK   14  A    between atoms: _25  and  _28
REMARK   15  A    between atoms: _28  and  _29
REMARK   16  A    between atoms: _35  and  _37
REMARK   17  A    between atoms: _37  and  _38
REMARK   18  A    between atoms: _37  and  _40
REMARK   19  A    between atoms: _40  and  _41
REMARK   20  A    between atoms: _41  and  _43
REMARK   21  A    between atoms: _43  and  ZN_337
REMARK   22  A    between atoms: _44  and  _46
REMARK   23  A    between atoms: _46  and  _47
REMARK   24  A    between atoms: _46  and  _49
REMARK   25  A    between atoms: _49  and  _50
REMARK   26  A    between atoms: _52  and  _54
REMARK   27  A    between atoms: _54  and  _55
REMARK   28  A    between atoms: _57  and  _59
REMARK   29  A    between atoms: _59  and  _60
REMARK   30  A    between atoms: _59  and  _62
REMARK   31  A    between atoms: _62  and  _63
REMARK   32  A    between atoms: _65  and  _67
REMARK   33  A    between atoms: _67  and  _68
REMARK   34  A    between atoms: _67  and  _70
REMARK   35  A    between atoms: _70  and  _71
REMARK   36  A    between atoms: _71  and  _72
REMARK   37  A    between atoms: _72  and  _73
REMARK   38  A    between atoms: _73  and  _74
REMARK   39  A    between atoms: _78  and  _80
REMARK   40  A    between atoms: _80  and  _81
REMARK   41  A    between atoms: _80  and  _83
REMARK   42  A    between atoms: _83  and  _84
REMARK   43  A    between atoms: _89  and  _91
REMARK   44  A    between atoms: _91  and  _92
REMARK   45  A    between atoms: _91  and  _94
REMARK   46  A    between atoms: _94  and  _95
REMARK   47  A    between atoms: _98  and  _100
REMARK   48  A    between atoms: _100  and  _101
REMARK   49  A    between atoms: _100  and  _103
REMARK   50  A    between atoms: _103  and  _104
REMARK   51  A    between atoms: _104  and  _105
REMARK   52  A    between atoms: _107  and  _109
REMARK   53  A    between atoms: _109  and  _110
REMARK   54  A    between atoms: _113  and  _115
REMARK   55  A    between atoms: _115  and  _116
REMARK   56  A    between atoms: _115  and  _118
REMARK   57  A    between atoms: _118  and  _119
REMARK   58  A    between atoms: _119  and  _121
REMARK   59  A    between atoms: _121  and  ZN_338
REMARK   60  A    between atoms: _122  and  _124
REMARK   61  A    between atoms: _124  and  _125
REMARK   62  A    between atoms: _124  and  _127
REMARK   63  A    between atoms: _127  and  _128
REMARK   64  A    between atoms: _128  and  _129
REMARK   65  A    between atoms: _131  and  _133
REMARK   66  A    between atoms: _133  and  _134
REMARK   67  A    between atoms: _136  and  _138
REMARK   68  A    between atoms: _138  and  _139
REMARK   69  A    between atoms: _138  and  _141
REMARK   70  A    between atoms: _141  and  _142
REMARK   71  A    between atoms: _147  and  _149
REMARK   72  A    between atoms: _149  and  _150
REMARK   73  A    between atoms: _149  and  _152
REMARK   74  A    between atoms: _152  and  _153
REMARK   75  A    between atoms: _158  and  _160
REMARK   76  A    between atoms: _160  and  _161
REMARK   77  A    between atoms: _160  and  _163
REMARK   78  A    between atoms: _163  and  _164
REMARK   79  A    between atoms: _167  and  _169
REMARK   80  A    between atoms: _184  and  _185
REMARK   81  A    between atoms: _189  and  _191
REMARK   82  A    between atoms: _191  and  ZN_338
REMARK   83  A    between atoms: _192  and  _194
REMARK   84  A    between atoms: _194  and  _195
REMARK   85  A    between atoms: _197  and  _199
REMARK   86  A    between atoms: _199  and  _200
REMARK   87  A    between atoms: _199  and  _202
REMARK   88  A    between atoms: _202  and  _203
REMARK   89  A    between atoms: _203  and  _204
REMARK   90  A    between atoms: _204  and  _205
REMARK   91  A    between atoms: _214  and  _216
REMARK   92  A    between atoms: _216  and  _217
REMARK   93  A    between atoms: _216  and  _219
REMARK   94  A    between atoms: _219  and  _220
REMARK   95  A    between atoms: _223  and  _225
REMARK   96  A    between atoms: _225  and  _226
REMARK   97  A    between atoms: _229  and  _231
REMARK   98  A    between atoms: _231  and  _232
REMARK   99  A    between atoms: _231  and  _234
REMARK  100  A    between atoms: _234  and  _235
REMARK  101  A    between atoms: _238  and  _240
REMARK  102  A    between atoms: _240  and  _241
REMARK  103  A    between atoms: _240  and  _243
REMARK  104  A    between atoms: _243  and  _244
REMARK  105  A    between atoms: _247  and  _249
REMARK  106  A    between atoms: _249  and  _250
REMARK  107  A    between atoms: _249  and  _252
REMARK  108  A    between atoms: _252  and  _253
REMARK  109  A    between atoms: _256  and  _258
REMARK  110  A    between atoms: _258  and  _259
REMARK  111  A    between atoms: _261  and  _263
REMARK  112  A    between atoms: _263  and  _264
REMARK  113  A    between atoms: _267  and  _269
REMARK  114  A    between atoms: _269  and  _270
REMARK  115  A    between atoms: _269  and  _272
REMARK  116  A    between atoms: _272  and  _273
REMARK  117  A    between atoms: _273  and  _274
REMARK  118  A    between atoms: _276  and  _278
REMARK  119  A    between atoms: _278  and  _279
REMARK  120  A    between atoms: _278  and  _281
REMARK  121  A    between atoms: _281  and  _282
REMARK  122  A    between atoms: _285  and  _287
REMARK  123  A    between atoms: _287  and  _288
REMARK  124  A    between atoms: _291  and  _293
REMARK  125  A    between atoms: _293  and  _294
REMARK  126  A    between atoms: _293  and  _296
REMARK  127  A    between atoms: _296  and  _297
REMARK  128  A    between atoms: _300  and  _302
REMARK  129  A    between atoms: _302  and  _303
REMARK  130  A    between atoms: _302  and  _305
REMARK  131  A    between atoms: _305  and  _306
REMARK  132  A    between atoms: _309  and  _311
REMARK  133  A    between atoms: _311  and  _312
REMARK  134  A    between atoms: _315  and  _317
REMARK  135  A    between atoms: _317  and  _318
REMARK  136  A    between atoms: _320  and  _322
REMARK  137  A    between atoms: _322  and  _323
REMARK  138  A    between atoms: _322  and  _325
REMARK  139  A    between atoms: _328  and  _330
REMARK  140  A    between atoms: _330  and  _331
REMARK  141  A    between atoms: _330  and  _333
REMARK  142  A    between atoms: _333  and  _334
REMARK  143  A    between atoms: _334  and  _335
REMARK                            x       y       z     vdW  Elec       q    Type
REMARK                         _______ _______ _______ _____ _____    ______ ____
ROOT
ATOM      1  C   LEU A   1     -10.335  61.440  46.610  0.00  0.00    +0.238 C 
ATOM      2  N   MET A   2      -9.424  62.306  47.056  0.00  0.00    -0.298 N 
ATOM      3  H   MET A   2      -9.501  63.307  46.786  0.00  0.00    +0.150 HD
ATOM      4  O   LEU A   1     -10.313  60.235  46.893  0.00  0.00    -0.274 OA
ENDROOT
BRANCH   1   5
ATOM      5  CA  LEU A   1     -11.445  62.019  45.720  0.00  0.00    +0.145 C 
BRANCH   5   6
ATOM      6  N   LEU A   1     -11.544  63.482  45.822  0.00  0.00    -0.238 NA
ATOM      7  H   LEU A   1     -11.343  64.066  44.985  0.00  0.00    +0.142 HD
ENDBRANCH   5   6
BRANCH   5   8
ATOM      8  CB  LEU A   1     -11.221  61.591  44.257  0.00  0.00    +0.026 C 
BRANCH   8   9
ATOM      9  CG  LEU A   1     -12.319  61.939  43.234  0.00  0.00    +0.002 C 
ATOM     10  CD2 LEU A   1     -13.642  61.267  43.609  0.00  0.00    +0.000 C 
ATOM     11  CD1 LEU A   1     -11.856  61.523  41.836  0.00  0.00    +0.000 C 
ENDBRANCH   8   9
ENDBRANCH   5   8
ENDBRANCH   1   5
BRANCH   2  12
ATOM     12  CA  MET A   2      -8.325  61.884  47.911  0.00  0.00    +0.138 C 
BRANCH  12  13
ATOM     13  C   MET A   2      -8.769  61.466  49.324  0.00  0.00    +0.227 C 
ATOM     14  O   MET A   2      -7.945  61.028  50.130  0.00  0.00    -0.286 OA
ENDBRANCH  12  13
BRANCH  12  15
ATOM     15  CB  MET A   2      -7.191  62.936  47.923  0.00  0.00    +0.039 C 
BRANCH  15  16
ATOM     16  CG  MET A   2      -6.493  63.119  46.545  0.00  0.00    +0.060 C 
BRANCH  16  17
ATOM     17  SD  MET A   2      -5.747  61.562  45.894  0.00  0.00    -0.139 S 
ATOM     18  CE  MET A   2      -6.958  61.069  44.714  0.00  0.00    +0.069 C 
ENDBRANCH  16  17
ENDBRANCH  15  16
ENDBRANCH  12  15
ENDBRANCH   2  12
TORSDOF 9
REMARK  Name = ../refined-set-2016/1lcp/1lcp_pocket.pdb
REMARK  143 active torsions:
REMARK  status: ('A' for Active; 'I' for Inactive)
REMARK    1  A    between atoms: _1  and  _3
REMARK    2  A    between atoms: _3  and  _4
REMARK    3  A    between atoms: _3  and  _6
REMARK    4  A    between atoms: _6  and  _7
REMARK    5  A    between atoms: _7  and  _8
REMARK    6  A    between atoms: _8  and  _9
REMARK    7  A    between atoms: _9  and  _10
REMARK    8  A    between atoms: _14  and  _16
REMARK    9  A    between atoms: _16  and  _17
REMARK   10  A    between atoms: _16  and  _19
REMARK   11  A    between atoms: _19  and  _20
REMARK   12  A    between atoms: _23  and  _25
REMARK   13  A    between atoms: _25  and  _26
REMARK   14  A    between atoms: _25  and  _28
REMARK   15  A    between atoms: _28  and  _29
REMARK   16  A    between atoms: _35  and  _37
REMARK   17  A    between atoms: _37  and  _38
REMARK   18  A    between atoms: _37  and  _40
REMARK   19  A    between atoms: _40  and  _41
REMARK   20  A    between atoms: _41  and  _43
REMARK   21  A    between atoms: _43  and  ZN_337
REMARK   22  A    between atoms: _44  and  _46
REMARK   23  A    between atoms: _46  and  _47
REMARK   24  A    between atoms: _46  and  _49
REMARK   25  A    between atoms: _49  and  _50
REMARK   26  A    between atoms: _52  and  _54
REMARK   27  A    between atoms: _54  and  _55
REMARK   28  A    between atoms: _57  and  _59
REMARK   29  A    between atoms: _59  and  _60
REMARK   30  A    between atoms: _59  and  _62
REMARK   31  A    between atoms: _62  and  _63
REMARK   32  A    between atoms: _65  and  _67
REMARK   33  A    between atoms: _67  and  _68
REMARK   34  A    between atoms: _67  and  _70
REMARK   35  A    between atoms: _70  and  _71
REMARK   36  A    between atoms: _71  and  _72
REMARK   37  A    between atoms: _72  and  _73
REMARK   38  A    between atoms: _73  and  _74
REMARK   39  A    between atoms: _78  and  _80
REMARK   40  A    between atoms: _80  and  _81
REMARK   41  A    between atoms: _80  and  _83
REMARK   42  A    between atoms: _83  and  _84
REMARK   43  A    between atoms: _89  and  _91
REMARK   44  A    between atoms: _91  and  _92
REMARK   45  A    between atoms: _91  and  _94
REMARK   46  A    between atoms: _94  and  _95
REMARK   47  A    between atoms: _98  and  _100
REMARK   48  A    between atoms: _100  and  _101
REMARK   49  A    between atoms: _100  and  _103
REMARK   50  A    between atoms: _103  and  _104
REMARK   51  A    between atoms: _104  and  _105
REMARK   52  A    between atoms: _107  and  _109
REMARK   53  A    between atoms: _109  and  _110
REMARK   54  A    between atoms: _113  and  _115
REMARK   55  A    between atoms: _115  and  _116
REMARK   56  A    between atoms: _115  and  _118
REMARK   57  A    between atoms: _118  and  _119
REMARK   58  A    between atoms: _119  and  _121
REMARK   59  A    between atoms: _121  and  ZN_338
REMARK   60  A    between atoms: _122  and  _124
REMARK   61  A    between atoms: _124  and  _125
REMARK   62  A    between atoms: _124  and  _127
REMARK   63  A    between atoms: _127  and  _128
REMARK   64  A    between atoms: _128  and  _129
REMARK   65  A    between atoms: _131  and  _133
REMARK   66  A    between atoms: _133  and  _134
REMARK   67  A    between atoms: _136  and  _138
REMARK   68  A    between atoms: _138  and  _139
REMARK   69  A    between atoms: _138  and  _141
REMARK   70  A    between atoms: _141  and  _142
REMARK   71  A    between atoms: _147  and  _149
REMARK   72  A    between atoms: _149  and  _150
REMARK   73  A    between atoms: _149  and  _152
REMARK   74  A    between atoms: _152  and  _153
REMARK   75  A    between atoms: _158  and  _160
REMARK   76  A    between atoms: _160  and  _161
REMARK   77  A    between atoms: _160  and  _163
REMARK   78  A    between atoms: _163  and  _164
REMARK   79  A    between atoms: _167  and  _169
REMARK   80  A    between atoms: _184  and  _185
REMARK   81  A    between atoms: _189  and  _191
REMARK   82  A    between atoms: _191  and  ZN_338
REMARK   83  A    between atoms: _192  and  _194
REMARK   84  A    between atoms: _194  and  _195
REMARK   85  A    between atoms: _197  and  _199
REMARK   86  A    between atoms: _199  and  _200
REMARK   87  A    between atoms: _199  and  _202
REMARK   88  A    between atoms: _202  and  _203
REMARK   89  A    between atoms: _203  and  _204
REMARK   90  A    between atoms: _204  and  _205
REMARK   91  A    between atoms: _214  and  _216
REMARK   92  A    between atoms: _216  and  _217
REMARK   93  A    between atoms: _216  and  _219
REMARK   94  A    between atoms: _219  and  _220
REMARK   95  A    between atoms: _223  and  _225
REMARK   96  A    between atoms: _225  and  _226
REMARK   97  A    between atoms: _229  and  _231
REMARK   98  A    between atoms: _231  and  _232
REMARK   99  A    between atoms: _231  and  _234
REMARK  100  A    between atoms: _234  and  _235
REMARK  101  A    between atoms: _238  and  _240
REMARK  102  A    between atoms: _240  and  _241
REMARK  103  A    between atoms: _240  and  _243
REMARK  104  A    between atoms: _243  and  _244
REMARK  105  A    between atoms: _247  and  _249
REMARK  106  A    between atoms: _249  and  _250
REMARK  107  A    between atoms: _249  and  _252
REMARK  108  A    between atoms: _252  and  _253
REMARK  109  A    between atoms: _256  and  _258
REMARK  110  A    between atoms: _258  and  _259
REMARK  111  A    between atoms: _261  and  _263
REMARK  112  A    between atoms: _263  and  _264
REMARK  113  A    between atoms: _267  and  _269
REMARK  114  A    between atoms: _269  and  _270
REMARK  115  A    between atoms: _269  and  _272
REMARK  116  A    between atoms: _272  and  _273
REMARK  117  A    between atoms: _273  and  _274
REMARK  118  A    between atoms: _276  and  _278
REMARK  119  A    between atoms: _278  and  _279
REMARK  120  A    between atoms: _278  and  _281
REMARK  121  A    between atoms: _281  and  _282
REMARK  122  A    between atoms: _285  and  _287
REMARK  123  A    between atoms: _287  and  _288
REMARK  124  A    between atoms: _291  and  _293
REMARK  125  A    between atoms: _293  and  _294
REMARK  126  A    between atoms: _293  and  _296
REMARK  127  A    between atoms: _296  and  _297
REMARK  128  A    between atoms: _300  and  _302
REMARK  129  A    between atoms: _302  and  _303
REMARK  130  A    between atoms: _302  and  _305
REMARK  131  A    between atoms: _305  and  _306
REMARK  132  A    between atoms: _309  and  _311
REMARK  133  A    between atoms: _311  and  _312
REMARK  134  A    between atoms: _315  and  _317
REMARK  135  A    between atoms: _317  and  _318
REMARK  136  A    between atoms: _320  and  _322
REMARK  137  A    between atoms: _322  and  _323
REMARK  138  A    between atoms: _322  and  _325
REMARK  139  A    between atoms: _328  and  _330
REMARK  140  A    between atoms: _330  and  _331
REMARK  141  A    between atoms: _330  and  _333
REMARK  142  A    between atoms: _333  and  _334
REMARK  143  A    between atoms: _334  and  _335
REMARK                            x       y       z     vdW  Elec       q    Type
REMARK                         _______ _______ _______ _____ _____    ______ ____
ROOT
ATOM      1  CB  ASN A   1      -0.470  63.574  53.114  0.00  0.00    +0.110 C 
ENDROOT
BRANCH   1   2
ATOM      2  CG  ASN A   1       0.856  64.047  52.508  0.00  0.00    +0.221 C 
ATOM      3  ND2 ASN A   1       1.763  64.523  53.338  0.00  0.00    -0.329 N 
ATOM      4 HD21 ASN A   1       1.557  64.581  54.356  0.00  0.00    +0.145 HD
ATOM      5 HD22 ASN A   1       2.684  64.840  52.975  0.00  0.00    +0.145 HD
ATOM      6  OD1 ASN A   1       1.057  63.960  51.294  0.00  0.00    -0.275 OA
ENDBRANCH   1   2
BRANCH   1   7
ATOM      7  CA  ASN A   1      -0.843  64.317  54.409  0.00  0.00    +0.142 C 
BRANCH   7   8
ATOM      8  N   ASN A   1      -2.031  63.722  55.037  0.00  0.00    -0.239 NA
ATOM      9  H   ASN A   1      -2.927  63.707  54.510  0.00  0.00    +0.142 HD
ENDBRANCH   7   8
BRANCH   7  10
ATOM     10  C   ASN A   1      -1.259  65.769  54.133  0.00  0.00    +0.225 C 
ATOM     11  O   ASN A   1      -1.952  66.053  53.151  0.00  0.00    -0.287 OA
ENDBRANCH   7  10
ENDBRANCH   1   7
TORSDOF 4
REMARK  Name = ../refined-set-2016/1lcp/1lcp_pocket.pdb
REMARK  143 active torsions:
REMARK  status: ('A' for Active; 'I' for Inactive)
REMARK    1  A    between atoms: _1  and  _3
REMARK    2  A    between atoms: _3  and  _4
REMARK    3  A    between atoms: _3  and  _6
REMARK    4  A    between atoms: _6  and  _7
REMARK    5  A    between atoms: _7  and  _8
REMARK    6  A    between atoms: _8  and  _9
REMARK    7  A    between atoms: _9  and  _10
REMARK    8  A    between atoms: _14  and  _16
REMARK    9  A    between atoms: _16  and  _17
REMARK   10  A    between atoms: _16  and  _19
REMARK   11  A    between atoms: _19  and  _20
REMARK   12  A    between atoms: _23  and  _25
REMARK   13  A    between atoms: _25  and  _26
REMARK   14  A    between atoms: _25  and  _28
REMARK   15  A    between atoms: _28  and  _29
REMARK   16  A    between atoms: _35  and  _37
REMARK   17  A    between atoms: _37  and  _38
REMARK   18  A    between atoms: _37  and  _40
REMARK   19  A    between atoms: _40  and  _41
REMARK   20  A    between atoms: _41  and  _43
REMARK   21  A    between atoms: _43  and  ZN_337
REMARK   22  A    between atoms: _44  and  _46
REMARK   23  A    between atoms: _46  and  _47
REMARK   24  A    between atoms: _46  and  _49
REMARK   25  A    between atoms: _49  and  _50
REMARK   26  A    between atoms: _52  and  _54
REMARK   27  A    between atoms: _54  and  _55
REMARK   28  A    between atoms: _57  and  _59
REMARK   29  A    between atoms: _59  and  _60
REMARK   30  A    between atoms: _59  and  _62
REMARK   31  A    between atoms: _62  and  _63
REMARK   32  A    between atoms: _65  and  _67
REMARK   33  A    between atoms: _67  and  _68
REMARK   34  A    between atoms: _67  and  _70
REMARK   35  A    between atoms: _70  and  _71
REMARK   36  A    between atoms: _71  and  _72
REMARK   37  A    between atoms: _72  and  _73
REMARK   38  A    between atoms: _73  and  _74
REMARK   39  A    between atoms: _78  and  _80
REMARK   40  A    between atoms: _80  and  _81
REMARK   41  A    between atoms: _80  and  _83
REMARK   42  A    between atoms: _83  and  _84
REMARK   43  A    between atoms: _89  and  _91
REMARK   44  A    between atoms: _91  and  _92
REMARK   45  A    between atoms: _91  and  _94
REMARK   46  A    between atoms: _94  and  _95
REMARK   47  A    between atoms: _98  and  _100
REMARK   48  A    between atoms: _100  and  _101
REMARK   49  A    between atoms: _100  and  _103
REMARK   50  A    between atoms: _103  and  _104
REMARK   51  A    between atoms: _104  and  _105
REMARK   52  A    between atoms: _107  and  _109
REMARK   53  A    between atoms: _109  and  _110
REMARK   54  A    between atoms: _113  and  _115
REMARK   55  A    between atoms: _115  and  _116
REMARK   56  A    between atoms: _115  and  _118
REMARK   57  A    between atoms: _118  and  _119
REMARK   58  A    between atoms: _119  and  _121
REMARK   59  A    between atoms: _121  and  ZN_338
REMARK   60  A    between atoms: _122  and  _124
REMARK   61  A    between atoms: _124  and  _125
REMARK   62  A    between atoms: _124  and  _127
REMARK   63  A    between atoms: _127  and  _128
REMARK   64  A    between atoms: _128  and  _129
REMARK   65  A    between atoms: _131  and  _133
REMARK   66  A    between atoms: _133  and  _134
REMARK   67  A    between atoms: _136  and  _138
REMARK   68  A    between atoms: _138  and  _139
REMARK   69  A    between atoms: _138  and  _141
REMARK   70  A    between atoms: _141  and  _142
REMARK   71  A    between atoms: _147  and  _149
REMARK   72  A    between atoms: _149  and  _150
REMARK   73  A    between atoms: _149  and  _152
REMARK   74  A    between atoms: _152  and  _153
REMARK   75  A    between atoms: _158  and  _160
REMARK   76  A    between atoms: _160  and  _161
REMARK   77  A    between atoms: _160  and  _163
REMARK   78  A    between atoms: _163  and  _164
REMARK   79  A    between atoms: _167  and  _169
REMARK   80  A    between atoms: _184  and  _185
REMARK   81  A    between atoms: _189  and  _191
REMARK   82  A    between atoms: _191  and  ZN_338
REMARK   83  A    between atoms: _192  and  _194
REMARK   84  A    between atoms: _194  and  _195
REMARK   85  A    between atoms: _197  and  _199
REMARK   86  A    between atoms: _199  and  _200
REMARK   87  A    between atoms: _199  and  _202
REMARK   88  A    between atoms: _202  and  _203
REMARK   89  A    between atoms: _203  and  _204
REMARK   90  A    between atoms: _204  and  _205
REMARK   91  A    between atoms: _214  and  _216
REMARK   92  A    between atoms: _216  and  _217
REMARK   93  A    between atoms: _216  and  _219
REMARK   94  A    between atoms: _219  and  _220
REMARK   95  A    between atoms: _223  and  _225
REMARK   96  A    between atoms: _225  and  _226
REMARK   97  A    between atoms: _229  and  _231
REMARK   98  A    between atoms: _231  and  _232
REMARK   99  A    between atoms: _231  and  _234
REMARK  100  A    between atoms: _234  and  _235
REMARK  101  A    between atoms: _238  and  _240
REMARK  102  A    between atoms: _240  and  _241
REMARK  103  A    between atoms: _240  and  _243
REMARK  104  A    between atoms: _243  and  _244
REMARK  105  A    between atoms: _247  and  _249
REMARK  106  A    between atoms: _249  and  _250
REMARK  107  A    between atoms: _249  and  _252
REMARK  108  A    between atoms: _252  and  _253
REMARK  109  A    between atoms: _256  and  _258
REMARK  110  A    between atoms: _258  and  _259
REMARK  111  A    between atoms: _261  and  _263
REMARK  112  A    between atoms: _263  and  _264
REMARK  113  A    between atoms: _267  and  _269
REMARK  114  A    between atoms: _269  and  _270
REMARK  115  A    between atoms: _269  and  _272
REMARK  116  A    between atoms: _272  and  _273
REMARK  117  A    between atoms: _273  and  _274
REMARK  118  A    between atoms: _276  and  _278
REMARK  119  A    between atoms: _278  and  _279
REMARK  120  A    between atoms: _278  and  _281
REMARK  121  A    between atoms: _281  and  _282
REMARK  122  A    between atoms: _285  and  _287
REMARK  123  A    between atoms: _287  and  _288
REMARK  124  A    between atoms: _291  and  _293
REMARK  125  A    between atoms: _293  and  _294
REMARK  126  A    between atoms: _293  and  _296
REMARK  127  A    between atoms: _296  and  _297
REMARK  128  A    between atoms: _300  and  _302
REMARK  129  A    between atoms: _302  and  _303
REMARK  130  A    between atoms: _302  and  _305
REMARK  131  A    between atoms: _305  and  _306
REMARK  132  A    between atoms: _309  and  _311
REMARK  133  A    between atoms: _311  and  _312
REMARK  134  A    between atoms: _315  and  _317
REMARK  135  A    between atoms: _317  and  _318
REMARK  136  A    between atoms: _320  and  _322
REMARK  137  A    between atoms: _322  and  _323
REMARK  138  A    between atoms: _322  and  _325
REMARK  139  A    between atoms: _328  and  _330
REMARK  140  A    between atoms: _330  and  _331
REMARK  141  A    between atoms: _330  and  _333
REMARK  142  A    between atoms: _333  and  _334
REMARK  143  A    between atoms: _334  and  _335
REMARK                            x       y       z     vdW  Elec       q    Type
REMARK                         _______ _______ _______ _____ _____    ______ ____
ROOT
ATOM      1  CA  THR A   4       0.103  55.875  41.869  0.00  0.00    +0.176 C 
ENDROOT
BRANCH   1   4
ATOM      2  C   LEU A   3       0.021  55.152  44.160  0.00  0.00    +0.241 C 
ATOM      3  O   LEU A   3       0.722  56.116  44.493  0.00  0.00    -0.273 OA
ATOM      4  N   THR A   4      -0.353  54.948  42.901  0.00  0.00    -0.295 N 
ATOM      5  H   THR A   4      -0.961  54.141  42.655  0.00  0.00    +0.150 HD
BRANCH   2   6
ATOM      6  CA  LEU A   3      -0.399  54.132  45.208  0.00  0.00    +0.149 C 
BRANCH   6   9
ATOM      7  C   THR A   2      -2.756  54.310  45.806  0.00  0.00    +0.243 C 
ATOM      8  O   THR A   2      -2.630  55.492  46.121  0.00  0.00    -0.273 OA
ATOM      9  N   LEU A   3      -1.752  53.589  45.306  0.00  0.00    -0.297 N 
ATOM     10  H   LEU A   3      -1.936  52.619  44.979  0.00  0.00    +0.150 HD
BRANCH   7  11
ATOM     11  CA  THR A   2      -4.086  53.560  46.009  0.00  0.00    +0.176 C 
BRANCH  11  13
ATOM     12  C   ALA A   1      -3.059  51.505  46.892  0.00  0.00    +0.238 C 
ATOM     13  N   THR A   2      -3.665  52.676  47.097  0.00  0.00    -0.295 N 
ATOM     14  H   THR A   2      -3.847  52.975  48.076  0.00  0.00    +0.150 HD
ATOM     15  O   ALA A   1      -2.830  51.039  45.769  0.00  0.00    -0.274 OA
BRANCH  12  16
ATOM     16  CA  ALA A   1      -2.617  50.766  48.144  0.00  0.00    +0.145 C 
ATOM     17  CB  ALA A   1      -1.169  51.163  48.463  0.00  0.00    +0.028 C 
BRANCH  16  18
ATOM     18  N   ALA A   1      -2.715  49.311  48.032  0.00  0.00    -0.238 NA
ATOM     19  H   ALA A   1      -2.770  48.871  47.091  0.00  0.00    +0.142 HD
ENDBRANCH  16  18
ENDBRANCH  12  16
ENDBRANCH  11  13
BRANCH  11  20
ATOM     20  CB  THR A   2      -5.212  54.518  46.523  0.00  0.00    +0.137 C 
ATOM     21  CG2 THR A   2      -6.555  53.773  46.619  0.00  0.00    +0.034 C 
BRANCH  20  22
ATOM     22  OG1 THR A   2      -4.869  55.013  47.826  0.00  0.00    -0.382 OA
ATOM     23  HG1 THR A   2      -4.014  55.509  47.775  0.00  0.00    +0.210 HD
ENDBRANCH  20  22
ENDBRANCH  11  20
ENDBRANCH   7  11
ENDBRANCH   6   9
BRANCH   6  24
ATOM     24  CB  LEU A   3       0.625  52.984  45.238  0.00  0.00    +0.029 C 
BRANCH  24  25
ATOM     25  CG  LEU A   3       2.025  53.354  45.762  0.00  0.00    +0.002 C 
ATOM     26  CD2 LEU A   3       1.933  53.710  47.246  0.00  0.00    +0.000 C 
ATOM     27  CD1 LEU A   3       3.014  52.198  45.571  0.00  0.00    +0.000 C 
ENDBRANCH  24  25
ENDBRANCH   6  24
ENDBRANCH   2   6
ENDBRANCH   1   4
BRANCH   1  28
ATOM     28  C   THR A   4      -0.908  56.278  40.797  0.00  0.00    +0.243 C 
ATOM     29  N   GLY A   5      -0.831  57.529  40.361  0.00  0.00    -0.295 N 
ATOM     30  H   GLY A   5      -0.159  58.195  40.792  0.00  0.00    +0.150 HD
ATOM     31  O   THR A   4      -1.725  55.474  40.360  0.00  0.00    -0.273 OA
BRANCH  29  32
ATOM     32  CA  GLY A   5      -1.696  57.958  39.275  0.00  0.00    +0.176 C 
BRANCH  32  33
ATOM     33  C   GLY A   5      -1.264  57.194  38.028  0.00  0.00    +0.243 C 
ATOM     34  N   ALA A   6       0.020  56.830  37.980  0.00  0.00    -0.297 N 
ATOM     35  H   ALA A   6       0.644  57.088  38.771  0.00  0.00    +0.150 HD
ATOM     36  O   GLY A   5      -2.071  56.914  37.135  0.00  0.00    -0.273 OA
BRANCH  34  37
ATOM     37  CA  ALA A   6       0.582  56.079  36.852  0.00  0.00    +0.149 C 
ATOM     38  CB  ALA A   6       2.068  55.824  37.074  0.00  0.00    +0.031 C 
BRANCH  37  39
ATOM     39  C   ALA A   6      -0.157  54.757  36.609  0.00  0.00    +0.241 C 
ATOM     40  N   MET A   7      -0.570  54.090  37.687  0.00  0.00    -0.297 N 
ATOM     41  H   MET A   7      -0.365  54.470  38.633  0.00  0.00    +0.150 HD
ATOM     42  O   ALA A   6      -0.365  54.364  35.457  0.00  0.00    -0.273 OA
BRANCH  40  43
ATOM     43  CA  MET A   7      -1.307  52.831  37.561  0.00  0.00    +0.149 C 
BRANCH  43  44
ATOM     44  C   MET A   7      -2.644  53.100  36.858  0.00  0.00    +0.241 C 
ATOM     45  N   ASP A   8      -3.262  54.247  37.156  0.00  0.00    -0.298 N 
ATOM     46  H   ASP A   8      -2.844  54.893  37.855  0.00  0.00    +0.150 HD
ATOM     47  O   MET A   7      -3.113  52.273  36.060  0.00  0.00    -0.273 OA
BRANCH  45  48
ATOM     48  CA  ASP A   8      -4.524  54.598  36.504  0.00  0.00    +0.148 C 
BRANCH  48  49
ATOM     49  C   ASP A   8      -4.290  54.846  34.997  0.00  0.00    +0.227 C 
ATOM     50  O   ASP A   8      -5.083  54.432  34.151  0.00  0.00    -0.286 OA
ENDBRANCH  48  49
BRANCH  48  51
ATOM     51  CB  ASP A   8      -5.153  55.829  37.145  0.00  0.00    +0.142 C 
BRANCH  51  52
ATOM     52  CG  ASP A   8      -6.486  56.177  36.513  0.00  0.00    +0.367 C 
ATOM     53  OD2 ASP A   8      -7.406  55.338  36.552  0.00  0.00    -0.246 OA
ATOM     54  OD1 ASP A   8      -6.601  57.263  35.923  0.00  0.00    -0.246 OA
ENDBRANCH  51  52
ENDBRANCH  48  51
ENDBRANCH  45  48
ENDBRANCH  43  44
BRANCH  43  55
ATOM     55  CB  MET A   7      -1.546  52.210  38.939  0.00  0.00    +0.041 C 
BRANCH  55  56
ATOM     56  CG  MET A   7      -2.099  50.782  38.901  0.00  0.00    +0.060 C 
BRANCH  56  57
ATOM     57  SD  MET A   7      -0.939  49.549  38.200  0.00  0.00    -0.139 S 
ATOM     58  CE  MET A   7      -1.854  48.989  36.906  0.00  0.00    +0.069 C 
ENDBRANCH  56  57
ENDBRANCH  55  56
ENDBRANCH  43  55
ENDBRANCH  40  43
ENDBRANCH  37  39
ENDBRANCH  34  37
ENDBRANCH  32  33
ENDBRANCH  29  32
ENDBRANCH   1  28
BRANCH   1  59
ATOM     59  CB  THR A   4       1.335  55.274  41.116  0.00  0.00    +0.137 C 
ATOM     60  CG2 THR A   4       2.488  54.919  42.093  0.00  0.00    +0.034 C 
BRANCH  59  61
ATOM     61  OG1 THR A   4       0.929  54.100  40.392  0.00  0.00    -0.382 OA
ATOM     62  HG1 THR A   4       0.571  53.430  41.027  0.00  0.00    +0.210 HD
ENDBRANCH  59  61
ENDBRANCH   1  59
TORSDOF 27
REMARK  Name = ../refined-set-2016/1lcp/1lcp_pocket.pdb
REMARK  143 active torsions:
REMARK  status: ('A' for Active; 'I' for Inactive)
REMARK    1  A    between atoms: _1  and  _3
REMARK    2  A    between atoms: _3  and  _4
REMARK    3  A    between atoms: _3  and  _6
REMARK    4  A    between atoms: _6  and  _7
REMARK    5  A    between atoms: _7  and  _8
REMARK    6  A    between atoms: _8  and  _9
REMARK    7  A    between atoms: _9  and  _10
REMARK    8  A    between atoms: _14  and  _16
REMARK    9  A    between atoms: _16  and  _17
REMARK   10  A    between atoms: _16  and  _19
REMARK   11  A    between atoms: _19  and  _20
REMARK   12  A    between atoms: _23  and  _25
REMARK   13  A    between atoms: _25  and  _26
REMARK   14  A    between atoms: _25  and  _28
REMARK   15  A    between atoms: _28  and  _29
REMARK   16  A    between atoms: _35  and  _37
REMARK   17  A    between atoms: _37  and  _38
REMARK   18  A    between atoms: _37  and  _40
REMARK   19  A    between atoms: _40  and  _41
REMARK   20  A    between atoms: _41  and  _43
REMARK   21  A    between atoms: _43  and  ZN_337
REMARK   22  A    between atoms: _44  and  _46
REMARK   23  A    between atoms: _46  and  _47
REMARK   24  A    between atoms: _46  and  _49
REMARK   25  A    between atoms: _49  and  _50
REMARK   26  A    between atoms: _52  and  _54
REMARK   27  A    between atoms: _54  and  _55
REMARK   28  A    between atoms: _57  and  _59
REMARK   29  A    between atoms: _59  and  _60
REMARK   30  A    between atoms: _59  and  _62
REMARK   31  A    between atoms: _62  and  _63
REMARK   32  A    between atoms: _65  and  _67
REMARK   33  A    between atoms: _67  and  _68
REMARK   34  A    between atoms: _67  and  _70
REMARK   35  A    between atoms: _70  and  _71
REMARK   36  A    between atoms: _71  and  _72
REMARK   37  A    between atoms: _72  and  _73
REMARK   38  A    between atoms: _73  and  _74
REMARK   39  A    between atoms: _78  and  _80
REMARK   40  A    between atoms: _80  and  _81
REMARK   41  A    between atoms: _80  and  _83
REMARK   42  A    between atoms: _83  and  _84
REMARK   43  A    between atoms: _89  and  _91
REMARK   44  A    between atoms: _91  and  _92
REMARK   45  A    between atoms: _91  and  _94
REMARK   46  A    between atoms: _94  and  _95
REMARK   47  A    between atoms: _98  and  _100
REMARK   48  A    between atoms: _100  and  _101
REMARK   49  A    between atoms: _100  and  _103
REMARK   50  A    between atoms: _103  and  _104
REMARK   51  A    between atoms: _104  and  _105
REMARK   52  A    between atoms: _107  and  _109
REMARK   53  A    between atoms: _109  and  _110
REMARK   54  A    between atoms: _113  and  _115
REMARK   55  A    between atoms: _115  and  _116
REMARK   56  A    between atoms: _115  and  _118
REMARK   57  A    between atoms: _118  and  _119
REMARK   58  A    between atoms: _119  and  _121
REMARK   59  A    between atoms: _121  and  ZN_338
REMARK   60  A    between atoms: _122  and  _124
REMARK   61  A    between atoms: _124  and  _125
REMARK   62  A    between atoms: _124  and  _127
REMARK   63  A    between atoms: _127  and  _128
REMARK   64  A    between atoms: _128  and  _129
REMARK   65  A    between atoms: _131  and  _133
REMARK   66  A    between atoms: _133  and  _134
REMARK   67  A    between atoms: _136  and  _138
REMARK   68  A    between atoms: _138  and  _139
REMARK   69  A    between atoms: _138  and  _141
REMARK   70  A    between atoms: _141  and  _142
REMARK   71  A    between atoms: _147  and  _149
REMARK   72  A    between atoms: _149  and  _150
REMARK   73  A    between atoms: _149  and  _152
REMARK   74  A    between atoms: _152  and  _153
REMARK   75  A    between atoms: _158  and  _160
REMARK   76  A    between atoms: _160  and  _161
REMARK   77  A    between atoms: _160  and  _163
REMARK   78  A    between atoms: _163  and  _164
REMARK   79  A    between atoms: _167  and  _169
REMARK   80  A    between atoms: _184  and  _185
REMARK   81  A    between atoms: _189  and  _191
REMARK   82  A    between atoms: _191  and  ZN_338
REMARK   83  A    between atoms: _192  and  _194
REMARK   84  A    between atoms: _194  and  _195
REMARK   85  A    between atoms: _197  and  _199
REMARK   86  A    between atoms: _199  and  _200
REMARK   87  A    between atoms: _199  and  _202
REMARK   88  A    between atoms: _202  and  _203
REMARK   89  A    between atoms: _203  and  _204
REMARK   90  A    between atoms: _204  and  _205
REMARK   91  A    between atoms: _214  and  _216
REMARK   92  A    between atoms: _216  and  _217
REMARK   93  A    between atoms: _216  and  _219
REMARK   94  A    between atoms: _219  and  _220
REMARK   95  A    between atoms: _223  and  _225
REMARK   96  A    between atoms: _225  and  _226
REMARK   97  A    between atoms: _229  and  _231
REMARK   98  A    between atoms: _231  and  _232
REMARK   99  A    between atoms: _231  and  _234
REMARK  100  A    between atoms: _234  and  _235
REMARK  101  A    between atoms: _238  and  _240
REMARK  102  A    between atoms: _240  and  _241
REMARK  103  A    between atoms: _240  and  _243
REMARK  104  A    between atoms: _243  and  _244
REMARK  105  A    between atoms: _247  and  _249
REMARK  106  A    between atoms: _249  and  _250
REMARK  107  A    between atoms: _249  and  _252
REMARK  108  A    between atoms: _252  and  _253
REMARK  109  A    between atoms: _256  and  _258
REMARK  110  A    between atoms: _258  and  _259
REMARK  111  A    between atoms: _261  and  _263
REMARK  112  A    between atoms: _263  and  _264
REMARK  113  A    between atoms: _267  and  _269
REMARK  114  A    between atoms: _269  and  _270
REMARK  115  A    between atoms: _269  and  _272
REMARK  116  A    between atoms: _272  and  _273
REMARK  117  A    between atoms: _273  and  _274
REMARK  118  A    between atoms: _276  and  _278
REMARK  119  A    between atoms: _278  and  _279
REMARK  120  A    between atoms: _278  and  _281
REMARK  121  A    between atoms: _281  and  _282
REMARK  122  A    between atoms: _285  and  _287
REMARK  123  A    between atoms: _287  and  _288
REMARK  124  A    between atoms: _291  and  _293
REMARK  125  A    between atoms: _293  and  _294
REMARK  126  A    between atoms: _293  and  _296
REMARK  127  A    between atoms: _296  and  _297
REMARK  128  A    between atoms: _300  and  _302
REMARK  129  A    between atoms: _302  and  _303
REMARK  130  A    between atoms: _302  and  _305
REMARK  131  A    between atoms: _305  and  _306
REMARK  132  A    between atoms: _309  and  _311
REMARK  133  A    between atoms: _311  and  _312
REMARK  134  A    between atoms: _315  and  _317
REMARK  135  A    between atoms: _317  and  _318
REMARK  136  A    between atoms: _320  and  _322
REMARK  137  A    between atoms: _322  and  _323
REMARK  138  A    between atoms: _322  and  _325
REMARK  139  A    between atoms: _328  and  _330
REMARK  140  A    between atoms: _330  and  _331
REMARK  141  A    between atoms: _330  and  _333
REMARK  142  A    between atoms: _333  and  _334
REMARK  143  A    between atoms: _334  and  _335
REMARK                            x       y       z     vdW  Elec       q    Type
REMARK                         _______ _______ _______ _____ _____    ______ ____
ROOT
ATOM      1  CA  ALA A   1       6.985  52.817  43.130  0.00  0.00    +0.133 C 
ATOM      2  CB  ALA A   1       5.524  53.305  43.054  0.00  0.00    +0.027 C 
ENDROOT
BRANCH   1   3
ATOM      3  N   ALA A   1       7.598  52.775  41.791  0.00  0.00    -0.239 NA
ATOM      4  H   ALA A   1       7.018  52.969  40.950  0.00  0.00    +0.142 HD
ENDBRANCH   1   3
BRANCH   1   5
ATOM      5  C   ALA A   1       7.066  51.416  43.770  0.00  0.00    +0.224 C 
ATOM      6  O   ALA A   1       7.413  51.272  44.946  0.00  0.00    -0.287 OA
ENDBRANCH   1   5
TORSDOF 2
REMARK  Name = ../refined-set-2016/1lcp/1lcp_pocket.pdb
REMARK  143 active torsions:
REMARK  status: ('A' for Active; 'I' for Inactive)
REMARK    1  A    between atoms: _1  and  _3
REMARK    2  A    between atoms: _3  and  _4
REMARK    3  A    between atoms: _3  and  _6
REMARK    4  A    between atoms: _6  and  _7
REMARK    5  A    between atoms: _7  and  _8
REMARK    6  A    between atoms: _8  and  _9
REMARK    7  A    between atoms: _9  and  _10
REMARK    8  A    between atoms: _14  and  _16
REMARK    9  A    between atoms: _16  and  _17
REMARK   10  A    between atoms: _16  and  _19
REMARK   11  A    between atoms: _19  and  _20
REMARK   12  A    between atoms: _23  and  _25
REMARK   13  A    between atoms: _25  and  _26
REMARK   14  A    between atoms: _25  and  _28
REMARK   15  A    between atoms: _28  and  _29
REMARK   16  A    between atoms: _35  and  _37
REMARK   17  A    between atoms: _37  and  _38
REMARK   18  A    between atoms: _37  and  _40
REMARK   19  A    between atoms: _40  and  _41
REMARK   20  A    between atoms: _41  and  _43
REMARK   21  A    between atoms: _43  and  ZN_337
REMARK   22  A    between atoms: _44  and  _46
REMARK   23  A    between atoms: _46  and  _47
REMARK   24  A    between atoms: _46  and  _49
REMARK   25  A    between atoms: _49  and  _50
REMARK   26  A    between atoms: _52  and  _54
REMARK   27  A    between atoms: _54  and  _55
REMARK   28  A    between atoms: _57  and  _59
REMARK   29  A    between atoms: _59  and  _60
REMARK   30  A    between atoms: _59  and  _62
REMARK   31  A    between atoms: _62  and  _63
REMARK   32  A    between atoms: _65  and  _67
REMARK   33  A    between atoms: _67  and  _68
REMARK   34  A    between atoms: _67  and  _70
REMARK   35  A    between atoms: _70  and  _71
REMARK   36  A    between atoms: _71  and  _72
REMARK   37  A    between atoms: _72  and  _73
REMARK   38  A    between atoms: _73  and  _74
REMARK   39  A    between atoms: _78  and  _80
REMARK   40  A    between atoms: _80  and  _81
REMARK   41  A    between atoms: _80  and  _83
REMARK   42  A    between atoms: _83  and  _84
REMARK   43  A    between atoms: _89  and  _91
REMARK   44  A    between atoms: _91  and  _92
REMARK   45  A    between atoms: _91  and  _94
REMARK   46  A    between atoms: _94  and  _95
REMARK   47  A    between atoms: _98  and  _100
REMARK   48  A    between atoms: _100  and  _101
REMARK   49  A    between atoms: _100  and  _103
REMARK   50  A    between atoms: _103  and  _104
REMARK   51  A    between atoms: _104  and  _105
REMARK   52  A    between atoms: _107  and  _109
REMARK   53  A    between atoms: _109  and  _110
REMARK   54  A    between atoms: _113  and  _115
REMARK   55  A    between atoms: _115  and  _116
REMARK   56  A    between atoms: _115  and  _118
REMARK   57  A    between atoms: _118  and  _119
REMARK   58  A    between atoms: _119  and  _121
REMARK   59  A    between atoms: _121  and  ZN_338
REMARK   60  A    between atoms: _122  and  _124
REMARK   61  A    between atoms: _124  and  _125
REMARK   62  A    between atoms: _124  and  _127
REMARK   63  A    between atoms: _127  and  _128
REMARK   64  A    between atoms: _128  and  _129
REMARK   65  A    between atoms: _131  and  _133
REMARK   66  A    between atoms: _133  and  _134
REMARK   67  A    between atoms: _136  and  _138
REMARK   68  A    between atoms: _138  and  _139
REMARK   69  A    between atoms: _138  and  _141
REMARK   70  A    between atoms: _141  and  _142
REMARK   71  A    between atoms: _147  and  _149
REMARK   72  A    between atoms: _149  and  _150
REMARK   73  A    between atoms: _149  and  _152
REMARK   74  A    between atoms: _152  and  _153
REMARK   75  A    between atoms: _158  and  _160
REMARK   76  A    between atoms: _160  and  _161
REMARK   77  A    between atoms: _160  and  _163
REMARK   78  A    between atoms: _163  and  _164
REMARK   79  A    between atoms: _167  and  _169
REMARK   80  A    between atoms: _184  and  _185
REMARK   81  A    between atoms: _189  and  _191
REMARK   82  A    between atoms: _191  and  ZN_338
REMARK   83  A    between atoms: _192  and  _194
REMARK   84  A    between atoms: _194  and  _195
REMARK   85  A    between atoms: _197  and  _199
REMARK   86  A    between atoms: _199  and  _200
REMARK   87  A    between atoms: _199  and  _202
REMARK   88  A    between atoms: _202  and  _203
REMARK   89  A    between atoms: _203  and  _204
REMARK   90  A    between atoms: _204  and  _205
REMARK   91  A    between atoms: _214  and  _216
REMARK   92  A    between atoms: _216  and  _217
REMARK   93  A    between atoms: _216  and  _219
REMARK   94  A    between atoms: _219  and  _220
REMARK   95  A    between atoms: _223  and  _225
REMARK   96  A    between atoms: _225  and  _226
REMARK   97  A    between atoms: _229  and  _231
REMARK   98  A    between atoms: _231  and  _232
REMARK   99  A    between atoms: _231  and  _234
REMARK  100  A    between atoms: _234  and  _235
REMARK  101  A    between atoms: _238  and  _240
REMARK  102  A    between atoms: _240  and  _241
REMARK  103  A    between atoms: _240  and  _243
REMARK  104  A    between atoms: _243  and  _244
REMARK  105  A    between atoms: _247  and  _249
REMARK  106  A    between atoms: _249  and  _250
REMARK  107  A    between atoms: _249  and  _252
REMARK  108  A    between atoms: _252  and  _253
REMARK  109  A    between atoms: _256  and  _258
REMARK  110  A    between atoms: _258  and  _259
REMARK  111  A    between atoms: _261  and  _263
REMARK  112  A    between atoms: _263  and  _264
REMARK  113  A    between atoms: _267  and  _269
REMARK  114  A    between atoms: _269  and  _270
REMARK  115  A    between atoms: _269  and  _272
REMARK  116  A    between atoms: _272  and  _273
REMARK  117  A    between atoms: _273  and  _274
REMARK  118  A    between atoms: _276  and  _278
REMARK  119  A    between atoms: _278  and  _279
REMARK  120  A    between atoms: _278  and  _281
REMARK  121  A    between atoms: _281  and  _282
REMARK  122  A    between atoms: _285  and  _287
REMARK  123  A    between atoms: _287  and  _288
REMARK  124  A    between atoms: _291  and  _293
REMARK  125  A    between atoms: _293  and  _294
REMARK  126  A    between atoms: _293  and  _296
REMARK  127  A    between atoms: _296  and  _297
REMARK  128  A    between atoms: _300  and  _302
REMARK  129  A    between atoms: _302  and  _303
REMARK  130  A    between atoms: _302  and  _305
REMARK  131  A    between atoms: _305  and  _306
REMARK  132  A    between atoms: _309  and  _311
REMARK  133  A    between atoms: _311  and  _312
REMARK  134  A    between atoms: _315  and  _317
REMARK  135  A    between atoms: _317  and  _318
REMARK  136  A    between atoms: _320  and  _322
REMARK  137  A    between atoms: _322  and  _323
REMARK  138  A    between atoms: _322  and  _325
REMARK  139  A    between atoms: _328  and  _330
REMARK  140  A    between atoms: _330  and  _331
REMARK  141  A    between atoms: _330  and  _333
REMARK  142  A    between atoms: _333  and  _334
REMARK  143  A    between atoms: _334  and  _335
REMARK                            x       y       z     vdW  Elec       q    Type
REMARK                         _______ _______ _______ _____ _____    ______ ____
ROOT
ATOM      1  C   ALA A   3      -6.370  53.578  41.186  0.00  0.00    +0.241 C 
ATOM      2  O   ALA A   3      -7.295  54.391  41.233  0.00  0.00    -0.273 OA
ATOM      3  N   GLY A   4      -6.200  52.736  40.170  0.00  0.00    -0.295 N 
ATOM      4  H   GLY A   4      -5.416  52.053  40.198  0.00  0.00    +0.150 HD
ENDROOT
BRANCH   1   5
ATOM      5  CA  ALA A   3      -5.366  53.476  42.339  0.00  0.00    +0.149 C 
ATOM      6  CB  ALA A   3      -4.102  54.248  42.002  0.00  0.00    +0.031 C 
BRANCH   5   9
ATOM      7  C   ILE A   2      -5.980  51.208  42.982  0.00  0.00    +0.241 C 
ATOM      8  O   ILE A   2      -7.183  51.482  42.923  0.00  0.00    -0.273 OA
ATOM      9  N   ALA A   3      -5.032  52.097  42.702  0.00  0.00    -0.297 N 
ATOM     10  H   ALA A   3      -4.034  51.808  42.741  0.00  0.00    +0.150 HD
BRANCH   7  11
ATOM     11  CA  ILE A   2      -5.520  49.790  43.354  0.00  0.00    +0.148 C 
BRANCH  11  13
ATOM     12  C   ASP A   1      -3.208  49.184  42.768  0.00  0.00    +0.239 C 
ATOM     13  N   ILE A   2      -4.090  49.647  43.650  0.00  0.00    -0.297 N 
ATOM     14  H   ILE A   2      -3.750  49.921  44.594  0.00  0.00    +0.150 HD
ATOM     15  O   ASP A   1      -3.513  48.828  41.617  0.00  0.00    -0.274 OA
BRANCH  12  16
ATOM     16  CA  ASP A   1      -1.762  49.063  43.275  0.00  0.00    +0.156 C 
BRANCH  16  17
ATOM     17  N   ASP A   1      -1.566  47.624  43.464  0.00  0.00    -0.238 NA
ATOM     18  H   ASP A   1      -1.265  47.037  42.660  0.00  0.00    +0.142 HD
ENDBRANCH  16  17
BRANCH  16  19
ATOM     19  CB  ASP A   1      -0.759  49.642  42.253  0.00  0.00    +0.140 C 
BRANCH  19  20
ATOM     20  CG  ASP A   1      -0.755  51.183  42.225  0.00  0.00    +0.367 C 
ATOM     21  OD2 ASP A   1      -1.760  51.820  42.627  0.00  0.00    -0.246 OA
ATOM     22  OD1 ASP A   1       0.268  51.759  41.792  0.00  0.00    -0.246 OA
ENDBRANCH  19  20
ENDBRANCH  16  19
ENDBRANCH  12  16
ENDBRANCH  11  13
BRANCH  11  23
ATOM     23  CB  ILE A   2      -6.384  49.272  44.544  0.00  0.00    +0.027 C 
ATOM     24  CG2 ILE A   2      -6.054  47.798  44.839  0.00  0.00    +0.002 C 
BRANCH  23  25
ATOM     25  CG1 ILE A   2      -6.159  50.137  45.794  0.00  0.00    +0.002 C 
ATOM     26  CD1 ILE A   2      -7.195  49.926  46.881  0.00  0.00    +0.000 C 
ENDBRANCH  23  25
ENDBRANCH  11  23
ENDBRANCH   7  11
ENDBRANCH   5   9
ENDBRANCH   1   5
BRANCH   3  27
ATOM     27  CA  GLY A   4      -7.096  52.754  39.016  0.00  0.00    +0.176 C 
BRANCH  27  28
ATOM     28  C   GLY A   4      -8.514  52.239  39.256  0.00  0.00    +0.243 C 
ATOM     29  N   VAL A   5      -8.694  51.420  40.290  0.00  0.00    -0.297 N 
ATOM     30  H   VAL A   5      -7.879  51.168  40.886  0.00  0.00    +0.150 HD
ATOM     31  O   GLY A   4      -9.444  52.596  38.524  0.00  0.00    -0.273 OA
BRANCH  29  32
ATOM     32  CA  VAL A   5     -10.010  50.865  40.609  0.00  0.00    +0.149 C 
BRANCH  32  33
ATOM     33  C   VAL A   5     -10.619  51.516  41.857  0.00  0.00    +0.241 C 
ATOM     34  O   VAL A   5     -11.555  50.978  42.456  0.00  0.00    -0.273 OA
ATOM     35  N   MET A   6     -10.119  52.697  42.219  0.00  0.00    -0.298 N 
ATOM     36  H   MET A   6      -9.349  53.114  41.658  0.00  0.00    +0.150 HD
BRANCH  35  37
ATOM     37  CA  MET A   6     -10.624  53.423  43.384  0.00  0.00    +0.138 C 
BRANCH  37  38
ATOM     38  C   MET A   6     -12.110  53.786  43.208  0.00  0.00    +0.227 C 
ATOM     39  O   MET A   6     -12.906  53.684  44.152  0.00  0.00    -0.286 OA
ENDBRANCH  37  38
BRANCH  37  40
ATOM     40  CB  MET A   6      -9.824  54.714  43.603  0.00  0.00    +0.039 C 
BRANCH  40  41
ATOM     41  CG  MET A   6     -10.395  55.625  44.700  0.00  0.00    +0.060 C 
BRANCH  41  42
ATOM     42  SD  MET A   6      -9.462  57.142  45.056  0.00  0.00    -0.139 S 
ATOM     43  CE  MET A   6     -10.114  58.218  43.844  0.00  0.00    +0.069 C 
ENDBRANCH  41  42
ENDBRANCH  40  41
ENDBRANCH  37  40
ENDBRANCH  35  37
ENDBRANCH  32  33
BRANCH  32  44
ATOM     44  CB  VAL A   5      -9.958  49.315  40.791  0.00  0.00    +0.027 C 
ATOM     45  CG2 VAL A   5      -9.023  48.926  41.930  0.00  0.00    +0.002 C 
ATOM     46  CG1 VAL A   5      -9.515  48.644  39.484  0.00  0.00    +0.002 C 
ENDBRANCH  32  44
ENDBRANCH  29  32
ENDBRANCH  27  28
ENDBRANCH   3  27
TORSDOF 20
REMARK  Name = ../refined-set-2016/1lcp/1lcp_pocket.pdb
REMARK  143 active torsions:
REMARK  status: ('A' for Active; 'I' for Inactive)
REMARK    1  A    between atoms: _1  and  _3
REMARK    2  A    between atoms: _3  and  _4
REMARK    3  A    between atoms: _3  and  _6
REMARK    4  A    between atoms: _6  and  _7
REMARK    5  A    between atoms: _7  and  _8
REMARK    6  A    between atoms: _8  and  _9
REMARK    7  A    between atoms: _9  and  _10
REMARK    8  A    between atoms: _14  and  _16
REMARK    9  A    between atoms: _16  and  _17
REMARK   10  A    between atoms: _16  and  _19
REMARK   11  A    between atoms: _19  and  _20
REMARK   12  A    between atoms: _23  and  _25
REMARK   13  A    between atoms: _25  and  _26
REMARK   14  A    between atoms: _25  and  _28
REMARK   15  A    between atoms: _28  and  _29
REMARK   16  A    between atoms: _35  and  _37
REMARK   17  A    between atoms: _37  and  _38
REMARK   18  A    between atoms: _37  and  _40
REMARK   19  A    between atoms: _40  and  _41
REMARK   20  A    between atoms: _41  and  _43
REMARK   21  A    between atoms: _43  and  ZN_337
REMARK   22  A    between atoms: _44  and  _46
REMARK   23  A    between atoms: _46  and  _47
REMARK   24  A    between atoms: _46  and  _49
REMARK   25  A    between atoms: _49  and  _50
REMARK   26  A    between atoms: _52  and  _54
REMARK   27  A    between atoms: _54  and  _55
REMARK   28  A    between atoms: _57  and  _59
REMARK   29  A    between atoms: _59  and  _60
REMARK   30  A    between atoms: _59  and  _62
REMARK   31  A    between atoms: _62  and  _63
REMARK   32  A    between atoms: _65  and  _67
REMARK   33  A    between atoms: _67  and  _68
REMARK   34  A    between atoms: _67  and  _70
REMARK   35  A    between atoms: _70  and  _71
REMARK   36  A    between atoms: _71  and  _72
REMARK   37  A    between atoms: _72  and  _73
REMARK   38  A    between atoms: _73  and  _74
REMARK   39  A    between atoms: _78  and  _80
REMARK   40  A    between atoms: _80  and  _81
REMARK   41  A    between atoms: _80  and  _83
REMARK   42  A    between atoms: _83  and  _84
REMARK   43  A    between atoms: _89  and  _91
REMARK   44  A    between atoms: _91  and  _92
REMARK   45  A    between atoms: _91  and  _94
REMARK   46  A    between atoms: _94  and  _95
REMARK   47  A    between atoms: _98  and  _100
REMARK   48  A    between atoms: _100  and  _101
REMARK   49  A    between atoms: _100  and  _103
REMARK   50  A    between atoms: _103  and  _104
REMARK   51  A    between atoms: _104  and  _105
REMARK   52  A    between atoms: _107  and  _109
REMARK   53  A    between atoms: _109  and  _110
REMARK   54  A    between atoms: _113  and  _115
REMARK   55  A    between atoms: _115  and  _116
REMARK   56  A    between atoms: _115  and  _118
REMARK   57  A    between atoms: _118  and  _119
REMARK   58  A    between atoms: _119  and  _121
REMARK   59  A    between atoms: _121  and  ZN_338
REMARK   60  A    between atoms: _122  and  _124
REMARK   61  A    between atoms: _124  and  _125
REMARK   62  A    between atoms: _124  and  _127
REMARK   63  A    between atoms: _127  and  _128
REMARK   64  A    between atoms: _128  and  _129
REMARK   65  A    between atoms: _131  and  _133
REMARK   66  A    between atoms: _133  and  _134
REMARK   67  A    between atoms: _136  and  _138
REMARK   68  A    between atoms: _138  and  _139
REMARK   69  A    between atoms: _138  and  _141
REMARK   70  A    between atoms: _141  and  _142
REMARK   71  A    between atoms: _147  and  _149
REMARK   72  A    between atoms: _149  and  _150
REMARK   73  A    between atoms: _149  and  _152
REMARK   74  A    between atoms: _152  and  _153
REMARK   75  A    between atoms: _158  and  _160
REMARK   76  A    between atoms: _160  and  _161
REMARK   77  A    between atoms: _160  and  _163
REMARK   78  A    between atoms: _163  and  _164
REMARK   79  A    between atoms: _167  and  _169
REMARK   80  A    between atoms: _184  and  _185
REMARK   81  A    between atoms: _189  and  _191
REMARK   82  A    between atoms: _191  and  ZN_338
REMARK   83  A    between atoms: _192  and  _194
REMARK   84  A    between atoms: _194  and  _195
REMARK   85  A    between atoms: _197  and  _199
REMARK   86  A    between atoms: _199  and  _200
REMARK   87  A    between atoms: _199  and  _202
REMARK   88  A    between atoms: _202  and  _203
REMARK   89  A    between atoms: _203  and  _204
REMARK   90  A    between atoms: _204  and  _205
REMARK   91  A    between atoms: _214  and  _216
REMARK   92  A    between atoms: _216  and  _217
REMARK   93  A    between atoms: _216  and  _219
REMARK   94  A    between atoms: _219  and  _220
REMARK   95  A    between atoms: _223  and  _225
REMARK   96  A    between atoms: _225  and  _226
REMARK   97  A    between atoms: _229  and  _231
REMARK   98  A    between atoms: _231  and  _232
REMARK   99  A    between atoms: _231  and  _234
REMARK  100  A    between atoms: _234  and  _235
REMARK  101  A    between atoms: _238  and  _240
REMARK  102  A    between atoms: _240  and  _241
REMARK  103  A    between atoms: _240  and  _243
REMARK  104  A    between atoms: _243  and  _244
REMARK  105  A    between atoms: _247  and  _249
REMARK  106  A    between atoms: _249  and  _250
REMARK  107  A    between atoms: _249  and  _252
REMARK  108  A    between atoms: _252  and  _253
REMARK  109  A    between atoms: _256  and  _258
REMARK  110  A    between atoms: _258  and  _259
REMARK  111  A    between atoms: _261  and  _263
REMARK  112  A    between atoms: _263  and  _264
REMARK  113  A    between atoms: _267  and  _269
REMARK  114  A    between atoms: _269  and  _270
REMARK  115  A    between atoms: _269  and  _272
REMARK  116  A    between atoms: _272  and  _273
REMARK  117  A    between atoms: _273  and  _274
REMARK  118  A    between atoms: _276  and  _278
REMARK  119  A    between atoms: _278  and  _279
REMARK  120  A    between atoms: _278  and  _281
REMARK  121  A    between atoms: _281  and  _282
REMARK  122  A    between atoms: _285  and  _287
REMARK  123  A    between atoms: _287  and  _288
REMARK  124  A    between atoms: _291  and  _293
REMARK  125  A    between atoms: _293  and  _294
REMARK  126  A    between atoms: _293  and  _296
REMARK  127  A    between atoms: _296  and  _297
REMARK  128  A    between atoms: _300  and  _302
REMARK  129  A    between atoms: _302  and  _303
REMARK  130  A    between atoms: _302  and  _305
REMARK  131  A    between atoms: _305  and  _306
REMARK  132  A    between atoms: _309  and  _311
REMARK  133  A    between atoms: _311  and  _312
REMARK  134  A    between atoms: _315  and  _317
REMARK  135  A    between atoms: _317  and  _318
REMARK  136  A    between atoms: _320  and  _322
REMARK  137  A    between atoms: _322  and  _323
REMARK  138  A    between atoms: _322  and  _325
REMARK  139  A    between atoms: _328  and  _330
REMARK  140  A    between atoms: _330  and  _331
REMARK  141  A    between atoms: _330  and  _333
REMARK  142  A    between atoms: _333  and  _334
REMARK  143  A    between atoms: _334  and  _335
REMARK                            x       y       z     vdW  Elec       q    Type
REMARK                         _______ _______ _______ _____ _____    ______ ____
ROOT
ATOM      1  O   HOH     1      -4.706  53.324  49.912  0.00  0.00    +0.000 OA
ENDROOT
TORSDOF 0
REMARK  Name = ../refined-set-2016/1lcp/1lcp_pocket.pdb
REMARK  143 active torsions:
REMARK  status: ('A' for Active; 'I' for Inactive)
REMARK    1  A    between atoms: _1  and  _3
REMARK    2  A    between atoms: _3  and  _4
REMARK    3  A    between atoms: _3  and  _6
REMARK    4  A    between atoms: _6  and  _7
REMARK    5  A    between atoms: _7  and  _8
REMARK    6  A    between atoms: _8  and  _9
REMARK    7  A    between atoms: _9  and  _10
REMARK    8  A    between atoms: _14  and  _16
REMARK    9  A    between atoms: _16  and  _17
REMARK   10  A    between atoms: _16  and  _19
REMARK   11  A    between atoms: _19  and  _20
REMARK   12  A    between atoms: _23  and  _25
REMARK   13  A    between atoms: _25  and  _26
REMARK   14  A    between atoms: _25  and  _28
REMARK   15  A    between atoms: _28  and  _29
REMARK   16  A    between atoms: _35  and  _37
REMARK   17  A    between atoms: _37  and  _38
REMARK   18  A    between atoms: _37  and  _40
REMARK   19  A    between atoms: _40  and  _41
REMARK   20  A    between atoms: _41  and  _43
REMARK   21  A    between atoms: _43  and  ZN_337
REMARK   22  A    between atoms: _44  and  _46
REMARK   23  A    between atoms: _46  and  _47
REMARK   24  A    between atoms: _46  and  _49
REMARK   25  A    between atoms: _49  and  _50
REMARK   26  A    between atoms: _52  and  _54
REMARK   27  A    between atoms: _54  and  _55
REMARK   28  A    between atoms: _57  and  _59
REMARK   29  A    between atoms: _59  and  _60
REMARK   30  A    between atoms: _59  and  _62
REMARK   31  A    between atoms: _62  and  _63
REMARK   32  A    between atoms: _65  and  _67
REMARK   33  A    between atoms: _67  and  _68
REMARK   34  A    between atoms: _67  and  _70
REMARK   35  A    between atoms: _70  and  _71
REMARK   36  A    between atoms: _71  and  _72
REMARK   37  A    between atoms: _72  and  _73
REMARK   38  A    between atoms: _73  and  _74
REMARK   39  A    between atoms: _78  and  _80
REMARK   40  A    between atoms: _80  and  _81
REMARK   41  A    between atoms: _80  and  _83
REMARK   42  A    between atoms: _83  and  _84
REMARK   43  A    between atoms: _89  and  _91
REMARK   44  A    between atoms: _91  and  _92
REMARK   45  A    between atoms: _91  and  _94
REMARK   46  A    between atoms: _94  and  _95
REMARK   47  A    between atoms: _98  and  _100
REMARK   48  A    between atoms: _100  and  _101
REMARK   49  A    between atoms: _100  and  _103
REMARK   50  A    between atoms: _103  and  _104
REMARK   51  A    between atoms: _104  and  _105
REMARK   52  A    between atoms: _107  and  _109
REMARK   53  A    between atoms: _109  and  _110
REMARK   54  A    between atoms: _113  and  _115
REMARK   55  A    between atoms: _115  and  _116
REMARK   56  A    between atoms: _115  and  _118
REMARK   57  A    between atoms: _118  and  _119
REMARK   58  A    between atoms: _119  and  _121
REMARK   59  A    between atoms: _121  and  ZN_338
REMARK   60  A    between atoms: _122  and  _124
REMARK   61  A    between atoms: _124  and  _125
REMARK   62  A    between atoms: _124  and  _127
REMARK   63  A    between atoms: _127  and  _128
REMARK   64  A    between atoms: _128  and  _129
REMARK   65  A    between atoms: _131  and  _133
REMARK   66  A    between atoms: _133  and  _134
REMARK   67  A    between atoms: _136  and  _138
REMARK   68  A    between atoms: _138  and  _139
REMARK   69  A    between atoms: _138  and  _141
REMARK   70  A    between atoms: _141  and  _142
REMARK   71  A    between atoms: _147  and  _149
REMARK   72  A    between atoms: _149  and  _150
REMARK   73  A    between atoms: _149  and  _152
REMARK   74  A    between atoms: _152  and  _153
REMARK   75  A    between atoms: _158  and  _160
REMARK   76  A    between atoms: _160  and  _161
REMARK   77  A    between atoms: _160  and  _163
REMARK   78  A    between atoms: _163  and  _164
REMARK   79  A    between atoms: _167  and  _169
REMARK   80  A    between atoms: _184  and  _185
REMARK   81  A    between atoms: _189  and  _191
REMARK   82  A    between atoms: _191  and  ZN_338
REMARK   83  A    between atoms: _192  and  _194
REMARK   84  A    between atoms: _194  and  _195
REMARK   85  A    between atoms: _197  and  _199
REMARK   86  A    between atoms: _199  and  _200
REMARK   87  A    between atoms: _199  and  _202
REMARK   88  A    between atoms: _202  and  _203
REMARK   89  A    between atoms: _203  and  _204
REMARK   90  A    between atoms: _204  and  _205
REMARK   91  A    between atoms: _214  and  _216
REMARK   92  A    between atoms: _216  and  _217
REMARK   93  A    between atoms: _216  and  _219
REMARK   94  A    between atoms: _219  and  _220
REMARK   95  A    between atoms: _223  and  _225
REMARK   96  A    between atoms: _225  and  _226
REMARK   97  A    between atoms: _229  and  _231
REMARK   98  A    between atoms: _231  and  _232
REMARK   99  A    between atoms: _231  and  _234
REMARK  100  A    between atoms: _234  and  _235
REMARK  101  A    between atoms: _238  and  _240
REMARK  102  A    between atoms: _240  and  _241
REMARK  103  A    between atoms: _240  and  _243
REMARK  104  A    between atoms: _243  and  _244
REMARK  105  A    between atoms: _247  and  _249
REMARK  106  A    between atoms: _249  and  _250
REMARK  107  A    between atoms: _249  and  _252
REMARK  108  A    between atoms: _252  and  _253
REMARK  109  A    between atoms: _256  and  _258
REMARK  110  A    between atoms: _258  and  _259
REMARK  111  A    between atoms: _261  and  _263
REMARK  112  A    between atoms: _263  and  _264
REMARK  113  A    between atoms: _267  and  _269
REMARK  114  A    between atoms: _269  and  _270
REMARK  115  A    between atoms: _269  and  _272
REMARK  116  A    between atoms: _272  and  _273
REMARK  117  A    between atoms: _273  and  _274
REMARK  118  A    between atoms: _276  and  _278
REMARK  119  A    between atoms: _278  and  _279
REMARK  120  A    between atoms: _278  and  _281
REMARK  121  A    between atoms: _281  and  _282
REMARK  122  A    between atoms: _285  and  _287
REMARK  123  A    between atoms: _287  and  _288
REMARK  124  A    between atoms: _291  and  _293
REMARK  125  A    between atoms: _293  and  _294
REMARK  126  A    between atoms: _293  and  _296
REMARK  127  A    between atoms: _296  and  _297
REMARK  128  A    between atoms: _300  and  _302
REMARK  129  A    between atoms: _302  and  _303
REMARK  130  A    between atoms: _302  and  _305
REMARK  131  A    between atoms: _305  and  _306
REMARK  132  A    between atoms: _309  and  _311
REMARK  133  A    between atoms: _311  and  _312
REMARK  134  A    between atoms: _315  and  _317
REMARK  135  A    between atoms: _317  and  _318
REMARK  136  A    between atoms: _320  and  _322
REMARK  137  A    between atoms: _322  and  _323
REMARK  138  A    between atoms: _322  and  _325
REMARK  139  A    between atoms: _328  and  _330
REMARK  140  A    between atoms: _330  and  _331
REMARK  141  A    between atoms: _330  and  _333
REMARK  142  A    between atoms: _333  and  _334
REMARK  143  A    between atoms: _334  and  _335
REMARK                            x       y       z     vdW  Elec       q    Type
REMARK                         _______ _______ _______ _____ _____    ______ ____
ROOT
ATOM      1  O   HOH     1       3.905  66.394  42.403  0.00  0.00    +0.000 OA
ENDROOT
TORSDOF 0
REMARK  Name = ../refined-set-2016/1lcp/1lcp_pocket.pdb
REMARK  143 active torsions:
REMARK  status: ('A' for Active; 'I' for Inactive)
REMARK    1  A    between atoms: _1  and  _3
REMARK    2  A    between atoms: _3  and  _4
REMARK    3  A    between atoms: _3  and  _6
REMARK    4  A    between atoms: _6  and  _7
REMARK    5  A    between atoms: _7  and  _8
REMARK    6  A    between atoms: _8  and  _9
REMARK    7  A    between atoms: _9  and  _10
REMARK    8  A    between atoms: _14  and  _16
REMARK    9  A    between atoms: _16  and  _17
REMARK   10  A    between atoms: _16  and  _19
REMARK   11  A    between atoms: _19  and  _20
REMARK   12  A    between atoms: _23  and  _25
REMARK   13  A    between atoms: _25  and  _26
REMARK   14  A    between atoms: _25  and  _28
REMARK   15  A    between atoms: _28  and  _29
REMARK   16  A    between atoms: _35  and  _37
REMARK   17  A    between atoms: _37  and  _38
REMARK   18  A    between atoms: _37  and  _40
REMARK   19  A    between atoms: _40  and  _41
REMARK   20  A    between atoms: _41  and  _43
REMARK   21  A    between atoms: _43  and  ZN_337
REMARK   22  A    between atoms: _44  and  _46
REMARK   23  A    between atoms: _46  and  _47
REMARK   24  A    between atoms: _46  and  _49
REMARK   25  A    between atoms: _49  and  _50
REMARK   26  A    between atoms: _52  and  _54
REMARK   27  A    between atoms: _54  and  _55
REMARK   28  A    between atoms: _57  and  _59
REMARK   29  A    between atoms: _59  and  _60
REMARK   30  A    between atoms: _59  and  _62
REMARK   31  A    between atoms: _62  and  _63
REMARK   32  A    between atoms: _65  and  _67
REMARK   33  A    between atoms: _67  and  _68
REMARK   34  A    between atoms: _67  and  _70
REMARK   35  A    between atoms: _70  and  _71
REMARK   36  A    between atoms: _71  and  _72
REMARK   37  A    between atoms: _72  and  _73
REMARK   38  A    between atoms: _73  and  _74
REMARK   39  A    between atoms: _78  and  _80
REMARK   40  A    between atoms: _80  and  _81
REMARK   41  A    between atoms: _80  and  _83
REMARK   42  A    between atoms: _83  and  _84
REMARK   43  A    between atoms: _89  and  _91
REMARK   44  A    between atoms: _91  and  _92
REMARK   45  A    between atoms: _91  and  _94
REMARK   46  A    between atoms: _94  and  _95
REMARK   47  A    between atoms: _98  and  _100
REMARK   48  A    between atoms: _100  and  _101
REMARK   49  A    between atoms: _100  and  _103
REMARK   50  A    between atoms: _103  and  _104
REMARK   51  A    between atoms: _104  and  _105
REMARK   52  A    between atoms: _107  and  _109
REMARK   53  A    between atoms: _109  and  _110
REMARK   54  A    between atoms: _113  and  _115
REMARK   55  A    between atoms: _115  and  _116
REMARK   56  A    between atoms: _115  and  _118
REMARK   57  A    between atoms: _118  and  _119
REMARK   58  A    between atoms: _119  and  _121
REMARK   59  A    between atoms: _121  and  ZN_338
REMARK   60  A    between atoms: _122  and  _124
REMARK   61  A    between atoms: _124  and  _125
REMARK   62  A    between atoms: _124  and  _127
REMARK   63  A    between atoms: _127  and  _128
REMARK   64  A    between atoms: _128  and  _129
REMARK   65  A    between atoms: _131  and  _133
REMARK   66  A    between atoms: _133  and  _134
REMARK   67  A    between atoms: _136  and  _138
REMARK   68  A    between atoms: _138  and  _139
REMARK   69  A    between atoms: _138  and  _141
REMARK   70  A    between atoms: _141  and  _142
REMARK   71  A    between atoms: _147  and  _149
REMARK   72  A    between atoms: _149  and  _150
REMARK   73  A    between atoms: _149  and  _152
REMARK   74  A    between atoms: _152  and  _153
REMARK   75  A    between atoms: _158  and  _160
REMARK   76  A    between atoms: _160  and  _161
REMARK   77  A    between atoms: _160  and  _163
REMARK   78  A    between atoms: _163  and  _164
REMARK   79  A    between atoms: _167  and  _169
REMARK   80  A    between atoms: _184  and  _185
REMARK   81  A    between atoms: _189  and  _191
REMARK   82  A    between atoms: _191  and  ZN_338
REMARK   83  A    between atoms: _192  and  _194
REMARK   84  A    between atoms: _194  and  _195
REMARK   85  A    between atoms: _197  and  _199
REMARK   86  A    between atoms: _199  and  _200
REMARK   87  A    between atoms: _199  and  _202
REMARK   88  A    between atoms: _202  and  _203
REMARK   89  A    between atoms: _203  and  _204
REMARK   90  A    between atoms: _204  and  _205
REMARK   91  A    between atoms: _214  and  _216
REMARK   92  A    between atoms: _216  and  _217
REMARK   93  A    between atoms: _216  and  _219
REMARK   94  A    between atoms: _219  and  _220
REMARK   95  A    between atoms: _223  and  _225
REMARK   96  A    between atoms: _225  and  _226
REMARK   97  A    between atoms: _229  and  _231
REMARK   98  A    between atoms: _231  and  _232
REMARK   99  A    between atoms: _231  and  _234
REMARK  100  A    between atoms: _234  and  _235
REMARK  101  A    between atoms: _238  and  _240
REMARK  102  A    between atoms: _240  and  _241
REMARK  103  A    between atoms: _240  and  _243
REMARK  104  A    between atoms: _243  and  _244
REMARK  105  A    between atoms: _247  and  _249
REMARK  106  A    between atoms: _249  and  _250
REMARK  107  A    between atoms: _249  and  _252
REMARK  108  A    between atoms: _252  and  _253
REMARK  109  A    between atoms: _256  and  _258
REMARK  110  A    between atoms: _258  and  _259
REMARK  111  A    between atoms: _261  and  _263
REMARK  112  A    between atoms: _263  and  _264
REMARK  113  A    between atoms: _267  and  _269
REMARK  114  A    between atoms: _269  and  _270
REMARK  115  A    between atoms: _269  and  _272
REMARK  116  A    between atoms: _272  and  _273
REMARK  117  A    between atoms: _273  and  _274
REMARK  118  A    between atoms: _276  and  _278
REMARK  119  A    between atoms: _278  and  _279
REMARK  120  A    between atoms: _278  and  _281
REMARK  121  A    between atoms: _281  and  _282
REMARK  122  A    between atoms: _285  and  _287
REMARK  123  A    between atoms: _287  and  _288
REMARK  124  A    between atoms: _291  and  _293
REMARK  125  A    between atoms: _293  and  _294
REMARK  126  A    between atoms: _293  and  _296
REMARK  127  A    between atoms: _296  and  _297
REMARK  128  A    between atoms: _300  and  _302
REMARK  129  A    between atoms: _302  and  _303
REMARK  130  A    between atoms: _302  and  _305
REMARK  131  A    between atoms: _305  and  _306
REMARK  132  A    between atoms: _309  and  _311
REMARK  133  A    between atoms: _311  and  _312
REMARK  134  A    between atoms: _315  and  _317
REMARK  135  A    between atoms: _317  and  _318
REMARK  136  A    between atoms: _320  and  _322
REMARK  137  A    between atoms: _322  and  _323
REMARK  138  A    between atoms: _322  and  _325
REMARK  139  A    between atoms: _328  and  _330
REMARK  140  A    between atoms: _330  and  _331
REMARK  141  A    between atoms: _330  and  _333
REMARK  142  A    between atoms: _333  and  _334
REMARK  143  A    between atoms: _334  and  _335
REMARK                            x       y       z     vdW  Elec       q    Type
REMARK                         _______ _______ _______ _____ _____    ______ ____
ROOT
ATOM      1  O   HOH     1      -8.285  63.030  42.158  0.00  0.00    +0.000 OA
ENDROOT
TORSDOF 0
REMARK  Name = ../refined-set-2016/1lcp/1lcp_pocket.pdb
REMARK  143 active torsions:
REMARK  status: ('A' for Active; 'I' for Inactive)
REMARK    1  A    between atoms: _1  and  _3
REMARK    2  A    between atoms: _3  and  _4
REMARK    3  A    between atoms: _3  and  _6
REMARK    4  A    between atoms: _6  and  _7
REMARK    5  A    between atoms: _7  and  _8
REMARK    6  A    between atoms: _8  and  _9
REMARK    7  A    between atoms: _9  and  _10
REMARK    8  A    between atoms: _14  and  _16
REMARK    9  A    between atoms: _16  and  _17
REMARK   10  A    between atoms: _16  and  _19
REMARK   11  A    between atoms: _19  and  _20
REMARK   12  A    between atoms: _23  and  _25
REMARK   13  A    between atoms: _25  and  _26
REMARK   14  A    between atoms: _25  and  _28
REMARK   15  A    between atoms: _28  and  _29
REMARK   16  A    between atoms: _35  and  _37
REMARK   17  A    between atoms: _37  and  _38
REMARK   18  A    between atoms: _37  and  _40
REMARK   19  A    between atoms: _40  and  _41
REMARK   20  A    between atoms: _41  and  _43
REMARK   21  A    between atoms: _43  and  ZN_337
REMARK   22  A    between atoms: _44  and  _46
REMARK   23  A    between atoms: _46  and  _47
REMARK   24  A    between atoms: _46  and  _49
REMARK   25  A    between atoms: _49  and  _50
REMARK   26  A    between atoms: _52  and  _54
REMARK   27  A    between atoms: _54  and  _55
REMARK   28  A    between atoms: _57  and  _59
REMARK   29  A    between atoms: _59  and  _60
REMARK   30  A    between atoms: _59  and  _62
REMARK   31  A    between atoms: _62  and  _63
REMARK   32  A    between atoms: _65  and  _67
REMARK   33  A    between atoms: _67  and  _68
REMARK   34  A    between atoms: _67  and  _70
REMARK   35  A    between atoms: _70  and  _71
REMARK   36  A    between atoms: _71  and  _72
REMARK   37  A    between atoms: _72  and  _73
REMARK   38  A    between atoms: _73  and  _74
REMARK   39  A    between atoms: _78  and  _80
REMARK   40  A    between atoms: _80  and  _81
REMARK   41  A    between atoms: _80  and  _83
REMARK   42  A    between atoms: _83  and  _84
REMARK   43  A    between atoms: _89  and  _91
REMARK   44  A    between atoms: _91  and  _92
REMARK   45  A    between atoms: _91  and  _94
REMARK   46  A    between atoms: _94  and  _95
REMARK   47  A    between atoms: _98  and  _100
REMARK   48  A    between atoms: _100  and  _101
REMARK   49  A    between atoms: _100  and  _103
REMARK   50  A    between atoms: _103  and  _104
REMARK   51  A    between atoms: _104  and  _105
REMARK   52  A    between atoms: _107  and  _109
REMARK   53  A    between atoms: _109  and  _110
REMARK   54  A    between atoms: _113  and  _115
REMARK   55  A    between atoms: _115  and  _116
REMARK   56  A    between atoms: _115  and  _118
REMARK   57  A    between atoms: _118  and  _119
REMARK   58  A    between atoms: _119  and  _121
REMARK   59  A    between atoms: _121  and  ZN_338
REMARK   60  A    between atoms: _122  and  _124
REMARK   61  A    between atoms: _124  and  _125
REMARK   62  A    between atoms: _124  and  _127
REMARK   63  A    between atoms: _127  and  _128
REMARK   64  A    between atoms: _128  and  _129
REMARK   65  A    between atoms: _131  and  _133
REMARK   66  A    between atoms: _133  and  _134
REMARK   67  A    between atoms: _136  and  _138
REMARK   68  A    between atoms: _138  and  _139
REMARK   69  A    between atoms: _138  and  _141
REMARK   70  A    between atoms: _141  and  _142
REMARK   71  A    between atoms: _147  and  _149
REMARK   72  A    between atoms: _149  and  _150
REMARK   73  A    between atoms: _149  and  _152
REMARK   74  A    between atoms: _152  and  _153
REMARK   75  A    between atoms: _158  and  _160
REMARK   76  A    between atoms: _160  and  _161
REMARK   77  A    between atoms: _160  and  _163
REMARK   78  A    between atoms: _163  and  _164
REMARK   79  A    between atoms: _167  and  _169
REMARK   80  A    between atoms: _184  and  _185
REMARK   81  A    between atoms: _189  and  _191
REMARK   82  A    between atoms: _191  and  ZN_338
REMARK   83  A    between atoms: _192  and  _194
REMARK   84  A    between atoms: _194  and  _195
REMARK   85  A    between atoms: _197  and  _199
REMARK   86  A    between atoms: _199  and  _200
REMARK   87  A    between atoms: _199  and  _202
REMARK   88  A    between atoms: _202  and  _203
REMARK   89  A    between atoms: _203  and  _204
REMARK   90  A    between atoms: _204  and  _205
REMARK   91  A    between atoms: _214  and  _216
REMARK   92  A    between atoms: _216  and  _217
REMARK   93  A    between atoms: _216  and  _219
REMARK   94  A    between atoms: _219  and  _220
REMARK   95  A    between atoms: _223  and  _225
REMARK   96  A    between atoms: _225  and  _226
REMARK   97  A    between atoms: _229  and  _231
REMARK   98  A    between atoms: _231  and  _232
REMARK   99  A    between atoms: _231  and  _234
REMARK  100  A    between atoms: _234  and  _235
REMARK  101  A    between atoms: _238  and  _240
REMARK  102  A    between atoms: _240  and  _241
REMARK  103  A    between atoms: _240  and  _243
REMARK  104  A    between atoms: _243  and  _244
REMARK  105  A    between atoms: _247  and  _249
REMARK  106  A    between atoms: _249  and  _250
REMARK  107  A    between atoms: _249  and  _252
REMARK  108  A    between atoms: _252  and  _253
REMARK  109  A    between atoms: _256  and  _258
REMARK  110  A    between atoms: _258  and  _259
REMARK  111  A    between atoms: _261  and  _263
REMARK  112  A    between atoms: _263  and  _264
REMARK  113  A    between atoms: _267  and  _269
REMARK  114  A    between atoms: _269  and  _270
REMARK  115  A    between atoms: _269  and  _272
REMARK  116  A    between atoms: _272  and  _273
REMARK  117  A    between atoms: _273  and  _274
REMARK  118  A    between atoms: _276  and  _278
REMARK  119  A    between atoms: _278  and  _279
REMARK  120  A    between atoms: _278  and  _281
REMARK  121  A    between atoms: _281  and  _282
REMARK  122  A    between atoms: _285  and  _287
REMARK  123  A    between atoms: _287  and  _288
REMARK  124  A    between atoms: _291  and  _293
REMARK  125  A    between atoms: _293  and  _294
REMARK  126  A    between atoms: _293  and  _296
REMARK  127  A    between atoms: _296  and  _297
REMARK  128  A    between atoms: _300  and  _302
REMARK  129  A    between atoms: _302  and  _303
REMARK  130  A    between atoms: _302  and  _305
REMARK  131  A    between atoms: _305  and  _306
REMARK  132  A    between atoms: _309  and  _311
REMARK  133  A    between atoms: _311  and  _312
REMARK  134  A    between atoms: _315  and  _317
REMARK  135  A    between atoms: _317  and  _318
REMARK  136  A    between atoms: _320  and  _322
REMARK  137  A    between atoms: _322  and  _323
REMARK  138  A    between atoms: _322  and  _325
REMARK  139  A    between atoms: _328  and  _330
REMARK  140  A    between atoms: _330  and  _331
REMARK  141  A    between atoms: _330  and  _333
REMARK  142  A    between atoms: _333  and  _334
REMARK  143  A    between atoms: _334  and  _335
REMARK                            x       y       z     vdW  Elec       q    Type
REMARK                         _______ _______ _______ _____ _____    ______ ____
ROOT
ATOM      1  O   HOH     1      -3.313  63.708  42.404  0.00  0.00    +0.000 OA
ENDROOT
TORSDOF 0
REMARK  Name = ../refined-set-2016/1lcp/1lcp_pocket.pdb
REMARK  143 active torsions:
REMARK  status: ('A' for Active; 'I' for Inactive)
REMARK    1  A    between atoms: _1  and  _3
REMARK    2  A    between atoms: _3  and  _4
REMARK    3  A    between atoms: _3  and  _6
REMARK    4  A    between atoms: _6  and  _7
REMARK    5  A    between atoms: _7  and  _8
REMARK    6  A    between atoms: _8  and  _9
REMARK    7  A    between atoms: _9  and  _10
REMARK    8  A    between atoms: _14  and  _16
REMARK    9  A    between atoms: _16  and  _17
REMARK   10  A    between atoms: _16  and  _19
REMARK   11  A    between atoms: _19  and  _20
REMARK   12  A    between atoms: _23  and  _25
REMARK   13  A    between atoms: _25  and  _26
REMARK   14  A    between atoms: _25  and  _28
REMARK   15  A    between atoms: _28  and  _29
REMARK   16  A    between atoms: _35  and  _37
REMARK   17  A    between atoms: _37  and  _38
REMARK   18  A    between atoms: _37  and  _40
REMARK   19  A    between atoms: _40  and  _41
REMARK   20  A    between atoms: _41  and  _43
REMARK   21  A    between atoms: _43  and  ZN_337
REMARK   22  A    between atoms: _44  and  _46
REMARK   23  A    between atoms: _46  and  _47
REMARK   24  A    between atoms: _46  and  _49
REMARK   25  A    between atoms: _49  and  _50
REMARK   26  A    between atoms: _52  and  _54
REMARK   27  A    between atoms: _54  and  _55
REMARK   28  A    between atoms: _57  and  _59
REMARK   29  A    between atoms: _59  and  _60
REMARK   30  A    between atoms: _59  and  _62
REMARK   31  A    between atoms: _62  and  _63
REMARK   32  A    between atoms: _65  and  _67
REMARK   33  A    between atoms: _67  and  _68
REMARK   34  A    between atoms: _67  and  _70
REMARK   35  A    between atoms: _70  and  _71
REMARK   36  A    between atoms: _71  and  _72
REMARK   37  A    between atoms: _72  and  _73
REMARK   38  A    between atoms: _73  and  _74
REMARK   39  A    between atoms: _78  and  _80
REMARK   40  A    between atoms: _80  and  _81
REMARK   41  A    between atoms: _80  and  _83
REMARK   42  A    between atoms: _83  and  _84
REMARK   43  A    between atoms: _89  and  _91
REMARK   44  A    between atoms: _91  and  _92
REMARK   45  A    between atoms: _91  and  _94
REMARK   46  A    between atoms: _94  and  _95
REMARK   47  A    between atoms: _98  and  _100
REMARK   48  A    between atoms: _100  and  _101
REMARK   49  A    between atoms: _100  and  _103
REMARK   50  A    between atoms: _103  and  _104
REMARK   51  A    between atoms: _104  and  _105
REMARK   52  A    between atoms: _107  and  _109
REMARK   53  A    between atoms: _109  and  _110
REMARK   54  A    between atoms: _113  and  _115
REMARK   55  A    between atoms: _115  and  _116
REMARK   56  A    between atoms: _115  and  _118
REMARK   57  A    between atoms: _118  and  _119
REMARK   58  A    between atoms: _119  and  _121
REMARK   59  A    between atoms: _121  and  ZN_338
REMARK   60  A    between atoms: _122  and  _124
REMARK   61  A    between atoms: _124  and  _125
REMARK   62  A    between atoms: _124  and  _127
REMARK   63  A    between atoms: _127  and  _128
REMARK   64  A    between atoms: _128  and  _129
REMARK   65  A    between atoms: _131  and  _133
REMARK   66  A    between atoms: _133  and  _134
REMARK   67  A    between atoms: _136  and  _138
REMARK   68  A    between atoms: _138  and  _139
REMARK   69  A    between atoms: _138  and  _141
REMARK   70  A    between atoms: _141  and  _142
REMARK   71  A    between atoms: _147  and  _149
REMARK   72  A    between atoms: _149  and  _150
REMARK   73  A    between atoms: _149  and  _152
REMARK   74  A    between atoms: _152  and  _153
REMARK   75  A    between atoms: _158  and  _160
REMARK   76  A    between atoms: _160  and  _161
REMARK   77  A    between atoms: _160  and  _163
REMARK   78  A    between atoms: _163  and  _164
REMARK   79  A    between atoms: _167  and  _169
REMARK   80  A    between atoms: _184  and  _185
REMARK   81  A    between atoms: _189  and  _191
REMARK   82  A    between atoms: _191  and  ZN_338
REMARK   83  A    between atoms: _192  and  _194
REMARK   84  A    between atoms: _194  and  _195
REMARK   85  A    between atoms: _197  and  _199
REMARK   86  A    between atoms: _199  and  _200
REMARK   87  A    between atoms: _199  and  _202
REMARK   88  A    between atoms: _202  and  _203
REMARK   89  A    between atoms: _203  and  _204
REMARK   90  A    between atoms: _204  and  _205
REMARK   91  A    between atoms: _214  and  _216
REMARK   92  A    between atoms: _216  and  _217
REMARK   93  A    between atoms: _216  and  _219
REMARK   94  A    between atoms: _219  and  _220
REMARK   95  A    between atoms: _223  and  _225
REMARK   96  A    between atoms: _225  and  _226
REMARK   97  A    between atoms: _229  and  _231
REMARK   98  A    between atoms: _231  and  _232
REMARK   99  A    between atoms: _231  and  _234
REMARK  100  A    between atoms: _234  and  _235
REMARK  101  A    between atoms: _238  and  _240
REMARK  102  A    between atoms: _240  and  _241
REMARK  103  A    between atoms: _240  and  _243
REMARK  104  A    between atoms: _243  and  _244
REMARK  105  A    between atoms: _247  and  _249
REMARK  106  A    between atoms: _249  and  _250
REMARK  107  A    between atoms: _249  and  _252
REMARK  108  A    between atoms: _252  and  _253
REMARK  109  A    between atoms: _256  and  _258
REMARK  110  A    between atoms: _258  and  _259
REMARK  111  A    between atoms: _261  and  _263
REMARK  112  A    between atoms: _263  and  _264
REMARK  113  A    between atoms: _267  and  _269
REMARK  114  A    between atoms: _269  and  _270
REMARK  115  A    between atoms: _269  and  _272
REMARK  116  A    between atoms: _272  and  _273
REMARK  117  A    between atoms: _273  and  _274
REMARK  118  A    between atoms: _276  and  _278
REMARK  119  A    between atoms: _278  and  _279
REMARK  120  A    between atoms: _278  and  _281
REMARK  121  A    between atoms: _281  and  _282
REMARK  122  A    between atoms: _285  and  _287
REMARK  123  A    between atoms: _287  and  _288
REMARK  124  A    between atoms: _291  and  _293
REMARK  125  A    between atoms: _293  and  _294
REMARK  126  A    between atoms: _293  and  _296
REMARK  127  A    between atoms: _296  and  _297
REMARK  128  A    between atoms: _300  and  _302
REMARK  129  A    between atoms: _302  and  _303
REMARK  130  A    between atoms: _302  and  _305
REMARK  131  A    between atoms: _305  and  _306
REMARK  132  A    between atoms: _309  and  _311
REMARK  133  A    between atoms: _311  and  _312
REMARK  134  A    between atoms: _315  and  _317
REMARK  135  A    between atoms: _317  and  _318
REMARK  136  A    between atoms: _320  and  _322
REMARK  137  A    between atoms: _322  and  _323
REMARK  138  A    between atoms: _322  and  _325
REMARK  139  A    between atoms: _328  and  _330
REMARK  140  A    between atoms: _330  and  _331
REMARK  141  A    between atoms: _330  and  _333
REMARK  142  A    between atoms: _333  and  _334
REMARK  143  A    between atoms: _334  and  _335
REMARK                            x       y       z     vdW  Elec       q    Type
REMARK                         _______ _______ _______ _____ _____    ______ ____
ROOT
ATOM      1  O   HOH     1       1.551  67.031  43.931  0.00  0.00    +0.000 OA
ENDROOT
TORSDOF 0
REMARK  Name = ../refined-set-2016/1lcp/1lcp_pocket.pdb
REMARK  143 active torsions:
REMARK  status: ('A' for Active; 'I' for Inactive)
REMARK    1  A    between atoms: _1  and  _3
REMARK    2  A    between atoms: _3  and  _4
REMARK    3  A    between atoms: _3  and  _6
REMARK    4  A    between atoms: _6  and  _7
REMARK    5  A    between atoms: _7  and  _8
REMARK    6  A    between atoms: _8  and  _9
REMARK    7  A    between atoms: _9  and  _10
REMARK    8  A    between atoms: _14  and  _16
REMARK    9  A    between atoms: _16  and  _17
REMARK   10  A    between atoms: _16  and  _19
REMARK   11  A    between atoms: _19  and  _20
REMARK   12  A    between atoms: _23  and  _25
REMARK   13  A    between atoms: _25  and  _26
REMARK   14  A    between atoms: _25  and  _28
REMARK   15  A    between atoms: _28  and  _29
REMARK   16  A    between atoms: _35  and  _37
REMARK   17  A    between atoms: _37  and  _38
REMARK   18  A    between atoms: _37  and  _40
REMARK   19  A    between atoms: _40  and  _41
REMARK   20  A    between atoms: _41  and  _43
REMARK   21  A    between atoms: _43  and  ZN_337
REMARK   22  A    between atoms: _44  and  _46
REMARK   23  A    between atoms: _46  and  _47
REMARK   24  A    between atoms: _46  and  _49
REMARK   25  A    between atoms: _49  and  _50
REMARK   26  A    between atoms: _52  and  _54
REMARK   27  A    between atoms: _54  and  _55
REMARK   28  A    between atoms: _57  and  _59
REMARK   29  A    between atoms: _59  and  _60
REMARK   30  A    between atoms: _59  and  _62
REMARK   31  A    between atoms: _62  and  _63
REMARK   32  A    between atoms: _65  and  _67
REMARK   33  A    between atoms: _67  and  _68
REMARK   34  A    between atoms: _67  and  _70
REMARK   35  A    between atoms: _70  and  _71
REMARK   36  A    between atoms: _71  and  _72
REMARK   37  A    between atoms: _72  and  _73
REMARK   38  A    between atoms: _73  and  _74
REMARK   39  A    between atoms: _78  and  _80
REMARK   40  A    between atoms: _80  and  _81
REMARK   41  A    between atoms: _80  and  _83
REMARK   42  A    between atoms: _83  and  _84
REMARK   43  A    between atoms: _89  and  _91
REMARK   44  A    between atoms: _91  and  _92
REMARK   45  A    between atoms: _91  and  _94
REMARK   46  A    between atoms: _94  and  _95
REMARK   47  A    between atoms: _98  and  _100
REMARK   48  A    between atoms: _100  and  _101
REMARK   49  A    between atoms: _100  and  _103
REMARK   50  A    between atoms: _103  and  _104
REMARK   51  A    between atoms: _104  and  _105
REMARK   52  A    between atoms: _107  and  _109
REMARK   53  A    between atoms: _109  and  _110
REMARK   54  A    between atoms: _113  and  _115
REMARK   55  A    between atoms: _115  and  _116
REMARK   56  A    between atoms: _115  and  _118
REMARK   57  A    between atoms: _118  and  _119
REMARK   58  A    between atoms: _119  and  _121
REMARK   59  A    between atoms: _121  and  ZN_338
REMARK   60  A    between atoms: _122  and  _124
REMARK   61  A    between atoms: _124  and  _125
REMARK   62  A    between atoms: _124  and  _127
REMARK   63  A    between atoms: _127  and  _128
REMARK   64  A    between atoms: _128  and  _129
REMARK   65  A    between atoms: _131  and  _133
REMARK   66  A    between atoms: _133  and  _134
REMARK   67  A    between atoms: _136  and  _138
REMARK   68  A    between atoms: _138  and  _139
REMARK   69  A    between atoms: _138  and  _141
REMARK   70  A    between atoms: _141  and  _142
REMARK   71  A    between atoms: _147  and  _149
REMARK   72  A    between atoms: _149  and  _150
REMARK   73  A    between atoms: _149  and  _152
REMARK   74  A    between atoms: _152  and  _153
REMARK   75  A    between atoms: _158  and  _160
REMARK   76  A    between atoms: _160  and  _161
REMARK   77  A    between atoms: _160  and  _163
REMARK   78  A    between atoms: _163  and  _164
REMARK   79  A    between atoms: _167  and  _169
REMARK   80  A    between atoms: _184  and  _185
REMARK   81  A    between atoms: _189  and  _191
REMARK   82  A    between atoms: _191  and  ZN_338
REMARK   83  A    between atoms: _192  and  _194
REMARK   84  A    between atoms: _194  and  _195
REMARK   85  A    between atoms: _197  and  _199
REMARK   86  A    between atoms: _199  and  _200
REMARK   87  A    between atoms: _199  and  _202
REMARK   88  A    between atoms: _202  and  _203
REMARK   89  A    between atoms: _203  and  _204
REMARK   90  A    between atoms: _204  and  _205
REMARK   91  A    between atoms: _214  and  _216
REMARK   92  A    between atoms: _216  and  _217
REMARK   93  A    between atoms: _216  and  _219
REMARK   94  A    between atoms: _219  and  _220
REMARK   95  A    between atoms: _223  and  _225
REMARK   96  A    between atoms: _225  and  _226
REMARK   97  A    between atoms: _229  and  _231
REMARK   98  A    between atoms: _231  and  _232
REMARK   99  A    between atoms: _231  and  _234
REMARK  100  A    between atoms: _234  and  _235
REMARK  101  A    between atoms: _238  and  _240
REMARK  102  A    between atoms: _240  and  _241
REMARK  103  A    between atoms: _240  and  _243
REMARK  104  A    between atoms: _243  and  _244
REMARK  105  A    between atoms: _247  and  _249
REMARK  106  A    between atoms: _249  and  _250
REMARK  107  A    between atoms: _249  and  _252
REMARK  108  A    between atoms: _252  and  _253
REMARK  109  A    between atoms: _256  and  _258
REMARK  110  A    between atoms: _258  and  _259
REMARK  111  A    between atoms: _261  and  _263
REMARK  112  A    between atoms: _263  and  _264
REMARK  113  A    between atoms: _267  and  _269
REMARK  114  A    between atoms: _269  and  _270
REMARK  115  A    between atoms: _269  and  _272
REMARK  116  A    between atoms: _272  and  _273
REMARK  117  A    between atoms: _273  and  _274
REMARK  118  A    between atoms: _276  and  _278
REMARK  119  A    between atoms: _278  and  _279
REMARK  120  A    between atoms: _278  and  _281
REMARK  121  A    between atoms: _281  and  _282
REMARK  122  A    between atoms: _285  and  _287
REMARK  123  A    between atoms: _287  and  _288
REMARK  124  A    between atoms: _291  and  _293
REMARK  125  A    between atoms: _293  and  _294
REMARK  126  A    between atoms: _293  and  _296
REMARK  127  A    between atoms: _296  and  _297
REMARK  128  A    between atoms: _300  and  _302
REMARK  129  A    between atoms: _302  and  _303
REMARK  130  A    between atoms: _302  and  _305
REMARK  131  A    between atoms: _305  and  _306
REMARK  132  A    between atoms: _309  and  _311
REMARK  133  A    between atoms: _311  and  _312
REMARK  134  A    between atoms: _315  and  _317
REMARK  135  A    between atoms: _317  and  _318
REMARK  136  A    between atoms: _320  and  _322
REMARK  137  A    between atoms: _322  and  _323
REMARK  138  A    between atoms: _322  and  _325
REMARK  139  A    between atoms: _328  and  _330
REMARK  140  A    between atoms: _330  and  _331
REMARK  141  A    between atoms: _330  and  _333
REMARK  142  A    between atoms: _333  and  _334
REMARK  143  A    between atoms: _334  and  _335
REMARK                            x       y       z     vdW  Elec       q    Type
REMARK                         _______ _______ _______ _____ _____    ______ ____
ROOT
ATOM      1  O   HOH     1       2.358  58.312  39.467  0.00  0.00    +0.000 OA
ENDROOT
TORSDOF 0
REMARK  Name = ../refined-set-2016/1lcp/1lcp_pocket.pdb
REMARK  143 active torsions:
REMARK  status: ('A' for Active; 'I' for Inactive)
REMARK    1  A    between atoms: _1  and  _3
REMARK    2  A    between atoms: _3  and  _4
REMARK    3  A    between atoms: _3  and  _6
REMARK    4  A    between atoms: _6  and  _7
REMARK    5  A    between atoms: _7  and  _8
REMARK    6  A    between atoms: _8  and  _9
REMARK    7  A    between atoms: _9  and  _10
REMARK    8  A    between atoms: _14  and  _16
REMARK    9  A    between atoms: _16  and  _17
REMARK   10  A    between atoms: _16  and  _19
REMARK   11  A    between atoms: _19  and  _20
REMARK   12  A    between atoms: _23  and  _25
REMARK   13  A    between atoms: _25  and  _26
REMARK   14  A    between atoms: _25  and  _28
REMARK   15  A    between atoms: _28  and  _29
REMARK   16  A    between atoms: _35  and  _37
REMARK   17  A    between atoms: _37  and  _38
REMARK   18  A    between atoms: _37  and  _40
REMARK   19  A    between atoms: _40  and  _41
REMARK   20  A    between atoms: _41  and  _43
REMARK   21  A    between atoms: _43  and  ZN_337
REMARK   22  A    between atoms: _44  and  _46
REMARK   23  A    between atoms: _46  and  _47
REMARK   24  A    between atoms: _46  and  _49
REMARK   25  A    between atoms: _49  and  _50
REMARK   26  A    between atoms: _52  and  _54
REMARK   27  A    between atoms: _54  and  _55
REMARK   28  A    between atoms: _57  and  _59
REMARK   29  A    between atoms: _59  and  _60
REMARK   30  A    between atoms: _59  and  _62
REMARK   31  A    between atoms: _62  and  _63
REMARK   32  A    between atoms: _65  and  _67
REMARK   33  A    between atoms: _67  and  _68
REMARK   34  A    between atoms: _67  and  _70
REMARK   35  A    between atoms: _70  and  _71
REMARK   36  A    between atoms: _71  and  _72
REMARK   37  A    between atoms: _72  and  _73
REMARK   38  A    between atoms: _73  and  _74
REMARK   39  A    between atoms: _78  and  _80
REMARK   40  A    between atoms: _80  and  _81
REMARK   41  A    between atoms: _80  and  _83
REMARK   42  A    between atoms: _83  and  _84
REMARK   43  A    between atoms: _89  and  _91
REMARK   44  A    between atoms: _91  and  _92
REMARK   45  A    between atoms: _91  and  _94
REMARK   46  A    between atoms: _94  and  _95
REMARK   47  A    between atoms: _98  and  _100
REMARK   48  A    between atoms: _100  and  _101
REMARK   49  A    between atoms: _100  and  _103
REMARK   50  A    between atoms: _103  and  _104
REMARK   51  A    between atoms: _104  and  _105
REMARK   52  A    between atoms: _107  and  _109
REMARK   53  A    between atoms: _109  and  _110
REMARK   54  A    between atoms: _113  and  _115
REMARK   55  A    between atoms: _115  and  _116
REMARK   56  A    between atoms: _115  and  _118
REMARK   57  A    between atoms: _118  and  _119
REMARK   58  A    between atoms: _119  and  _121
REMARK   59  A    between atoms: _121  and  ZN_338
REMARK   60  A    between atoms: _122  and  _124
REMARK   61  A    between atoms: _124  and  _125
REMARK   62  A    between atoms: _124  and  _127
REMARK   63  A    between atoms: _127  and  _128
REMARK   64  A    between atoms: _128  and  _129
REMARK   65  A    between atoms: _131  and  _133
REMARK   66  A    between atoms: _133  and  _134
REMARK   67  A    between atoms: _136  and  _138
REMARK   68  A    between atoms: _138  and  _139
REMARK   69  A    between atoms: _138  and  _141
REMARK   70  A    between atoms: _141  and  _142
REMARK   71  A    between atoms: _147  and  _149
REMARK   72  A    between atoms: _149  and  _150
REMARK   73  A    between atoms: _149  and  _152
REMARK   74  A    between atoms: _152  and  _153
REMARK   75  A    between atoms: _158  and  _160
REMARK   76  A    between atoms: _160  and  _161
REMARK   77  A    between atoms: _160  and  _163
REMARK   78  A    between atoms: _163  and  _164
REMARK   79  A    between atoms: _167  and  _169
REMARK   80  A    between atoms: _184  and  _185
REMARK   81  A    between atoms: _189  and  _191
REMARK   82  A    between atoms: _191  and  ZN_338
REMARK   83  A    between atoms: _192  and  _194
REMARK   84  A    between atoms: _194  and  _195
REMARK   85  A    between atoms: _197  and  _199
REMARK   86  A    between atoms: _199  and  _200
REMARK   87  A    between atoms: _199  and  _202
REMARK   88  A    between atoms: _202  and  _203
REMARK   89  A    between atoms: _203  and  _204
REMARK   90  A    between atoms: _204  and  _205
REMARK   91  A    between atoms: _214  and  _216
REMARK   92  A    between atoms: _216  and  _217
REMARK   93  A    between atoms: _216  and  _219
REMARK   94  A    between atoms: _219  and  _220
REMARK   95  A    between atoms: _223  and  _225
REMARK   96  A    between atoms: _225  and  _226
REMARK   97  A    between atoms: _229  and  _231
REMARK   98  A    between atoms: _231  and  _232
REMARK   99  A    between atoms: _231  and  _234
REMARK  100  A    between atoms: _234  and  _235
REMARK  101  A    between atoms: _238  and  _240
REMARK  102  A    between atoms: _240  and  _241
REMARK  103  A    between atoms: _240  and  _243
REMARK  104  A    between atoms: _243  and  _244
REMARK  105  A    between atoms: _247  and  _249
REMARK  106  A    between atoms: _249  and  _250
REMARK  107  A    between atoms: _249  and  _252
REMARK  108  A    between atoms: _252  and  _253
REMARK  109  A    between atoms: _256  and  _258
REMARK  110  A    between atoms: _258  and  _259
REMARK  111  A    between atoms: _261  and  _263
REMARK  112  A    between atoms: _263  and  _264
REMARK  113  A    between atoms: _267  and  _269
REMARK  114  A    between atoms: _269  and  _270
REMARK  115  A    between atoms: _269  and  _272
REMARK  116  A    between atoms: _272  and  _273
REMARK  117  A    between atoms: _273  and  _274
REMARK  118  A    between atoms: _276  and  _278
REMARK  119  A    between atoms: _278  and  _279
REMARK  120  A    between atoms: _278  and  _281
REMARK  121  A    between atoms: _281  and  _282
REMARK  122  A    between atoms: _285  and  _287
REMARK  123  A    between atoms: _287  and  _288
REMARK  124  A    between atoms: _291  and  _293
REMARK  125  A    between atoms: _293  and  _294
REMARK  126  A    between atoms: _293  and  _296
REMARK  127  A    between atoms: _296  and  _297
REMARK  128  A    between atoms: _300  and  _302
REMARK  129  A    between atoms: _302  and  _303
REMARK  130  A    between atoms: _302  and  _305
REMARK  131  A    between atoms: _305  and  _306
REMARK  132  A    between atoms: _309  and  _311
REMARK  133  A    between atoms: _311  and  _312
REMARK  134  A    between atoms: _315  and  _317
REMARK  135  A    between atoms: _317  and  _318
REMARK  136  A    between atoms: _320  and  _322
REMARK  137  A    between atoms: _322  and  _323
REMARK  138  A    between atoms: _322  and  _325
REMARK  139  A    between atoms: _328  and  _330
REMARK  140  A    between atoms: _330  and  _331
REMARK  141  A    between atoms: _330  and  _333
REMARK  142  A    between atoms: _333  and  _334
REMARK  143  A    between atoms: _334  and  _335
REMARK                            x       y       z     vdW  Elec       q    Type
REMARK                         _______ _______ _______ _____ _____    ______ ____
ROOT
ATOM      1  O   HOH     1       5.950  56.819  41.007  0.00  0.00    +0.000 OA
ENDROOT
TORSDOF 0
REMARK  Name = ../refined-set-2016/1lcp/1lcp_pocket.pdb
REMARK  143 active torsions:
REMARK  status: ('A' for Active; 'I' for Inactive)
REMARK    1  A    between atoms: _1  and  _3
REMARK    2  A    between atoms: _3  and  _4
REMARK    3  A    between atoms: _3  and  _6
REMARK    4  A    between atoms: _6  and  _7
REMARK    5  A    between atoms: _7  and  _8
REMARK    6  A    between atoms: _8  and  _9
REMARK    7  A    between atoms: _9  and  _10
REMARK    8  A    between atoms: _14  and  _16
REMARK    9  A    between atoms: _16  and  _17
REMARK   10  A    between atoms: _16  and  _19
REMARK   11  A    between atoms: _19  and  _20
REMARK   12  A    between atoms: _23  and  _25
REMARK   13  A    between atoms: _25  and  _26
REMARK   14  A    between atoms: _25  and  _28
REMARK   15  A    between atoms: _28  and  _29
REMARK   16  A    between atoms: _35  and  _37
REMARK   17  A    between atoms: _37  and  _38
REMARK   18  A    between atoms: _37  and  _40
REMARK   19  A    between atoms: _40  and  _41
REMARK   20  A    between atoms: _41  and  _43
REMARK   21  A    between atoms: _43  and  ZN_337
REMARK   22  A    between atoms: _44  and  _46
REMARK   23  A    between atoms: _46  and  _47
REMARK   24  A    between atoms: _46  and  _49
REMARK   25  A    between atoms: _49  and  _50
REMARK   26  A    between atoms: _52  and  _54
REMARK   27  A    between atoms: _54  and  _55
REMARK   28  A    between atoms: _57  and  _59
REMARK   29  A    between atoms: _59  and  _60
REMARK   30  A    between atoms: _59  and  _62
REMARK   31  A    between atoms: _62  and  _63
REMARK   32  A    between atoms: _65  and  _67
REMARK   33  A    between atoms: _67  and  _68
REMARK   34  A    between atoms: _67  and  _70
REMARK   35  A    between atoms: _70  and  _71
REMARK   36  A    between atoms: _71  and  _72
REMARK   37  A    between atoms: _72  and  _73
REMARK   38  A    between atoms: _73  and  _74
REMARK   39  A    between atoms: _78  and  _80
REMARK   40  A    between atoms: _80  and  _81
REMARK   41  A    between atoms: _80  and  _83
REMARK   42  A    between atoms: _83  and  _84
REMARK   43  A    between atoms: _89  and  _91
REMARK   44  A    between atoms: _91  and  _92
REMARK   45  A    between atoms: _91  and  _94
REMARK   46  A    between atoms: _94  and  _95
REMARK   47  A    between atoms: _98  and  _100
REMARK   48  A    between atoms: _100  and  _101
REMARK   49  A    between atoms: _100  and  _103
REMARK   50  A    between atoms: _103  and  _104
REMARK   51  A    between atoms: _104  and  _105
REMARK   52  A    between atoms: _107  and  _109
REMARK   53  A    between atoms: _109  and  _110
REMARK   54  A    between atoms: _113  and  _115
REMARK   55  A    between atoms: _115  and  _116
REMARK   56  A    between atoms: _115  and  _118
REMARK   57  A    between atoms: _118  and  _119
REMARK   58  A    between atoms: _119  and  _121
REMARK   59  A    between atoms: _121  and  ZN_338
REMARK   60  A    between atoms: _122  and  _124
REMARK   61  A    between atoms: _124  and  _125
REMARK   62  A    between atoms: _124  and  _127
REMARK   63  A    between atoms: _127  and  _128
REMARK   64  A    between atoms: _128  and  _129
REMARK   65  A    between atoms: _131  and  _133
REMARK   66  A    between atoms: _133  and  _134
REMARK   67  A    between atoms: _136  and  _138
REMARK   68  A    between atoms: _138  and  _139
REMARK   69  A    between atoms: _138  and  _141
REMARK   70  A    between atoms: _141  and  _142
REMARK   71  A    between atoms: _147  and  _149
REMARK   72  A    between atoms: _149  and  _150
REMARK   73  A    between atoms: _149  and  _152
REMARK   74  A    between atoms: _152  and  _153
REMARK   75  A    between atoms: _158  and  _160
REMARK   76  A    between atoms: _160  and  _161
REMARK   77  A    between atoms: _160  and  _163
REMARK   78  A    between atoms: _163  and  _164
REMARK   79  A    between atoms: _167  and  _169
REMARK   80  A    between atoms: _184  and  _185
REMARK   81  A    between atoms: _189  and  _191
REMARK   82  A    between atoms: _191  and  ZN_338
REMARK   83  A    between atoms: _192  and  _194
REMARK   84  A    between atoms: _194  and  _195
REMARK   85  A    between atoms: _197  and  _199
REMARK   86  A    between atoms: _199  and  _200
REMARK   87  A    between atoms: _199  and  _202
REMARK   88  A    between atoms: _202  and  _203
REMARK   89  A    between atoms: _203  and  _204
REMARK   90  A    between atoms: _204  and  _205
REMARK   91  A    between atoms: _214  and  _216
REMARK   92  A    between atoms: _216  and  _217
REMARK   93  A    between atoms: _216  and  _219
REMARK   94  A    between atoms: _219  and  _220
REMARK   95  A    between atoms: _223  and  _225
REMARK   96  A    between atoms: _225  and  _226
REMARK   97  A    between atoms: _229  and  _231
REMARK   98  A    between atoms: _231  and  _232
REMARK   99  A    between atoms: _231  and  _234
REMARK  100  A    between atoms: _234  and  _235
REMARK  101  A    between atoms: _238  and  _240
REMARK  102  A    between atoms: _240  and  _241
REMARK  103  A    between atoms: _240  and  _243
REMARK  104  A    between atoms: _243  and  _244
REMARK  105  A    between atoms: _247  and  _249
REMARK  106  A    between atoms: _249  and  _250
REMARK  107  A    between atoms: _249  and  _252
REMARK  108  A    between atoms: _252  and  _253
REMARK  109  A    between atoms: _256  and  _258
REMARK  110  A    between atoms: _258  and  _259
REMARK  111  A    between atoms: _261  and  _263
REMARK  112  A    between atoms: _263  and  _264
REMARK  113  A    between atoms: _267  and  _269
REMARK  114  A    between atoms: _269  and  _270
REMARK  115  A    between atoms: _269  and  _272
REMARK  116  A    between atoms: _272  and  _273
REMARK  117  A    between atoms: _273  and  _274
REMARK  118  A    between atoms: _276  and  _278
REMARK  119  A    between atoms: _278  and  _279
REMARK  120  A    between atoms: _278  and  _281
REMARK  121  A    between atoms: _281  and  _282
REMARK  122  A    between atoms: _285  and  _287
REMARK  123  A    between atoms: _287  and  _288
REMARK  124  A    between atoms: _291  and  _293
REMARK  125  A    between atoms: _293  and  _294
REMARK  126  A    between atoms: _293  and  _296
REMARK  127  A    between atoms: _296  and  _297
REMARK  128  A    between atoms: _300  and  _302
REMARK  129  A    between atoms: _302  and  _303
REMARK  130  A    between atoms: _302  and  _305
REMARK  131  A    between atoms: _305  and  _306
REMARK  132  A    between atoms: _309  and  _311
REMARK  133  A    between atoms: _311  and  _312
REMARK  134  A    between atoms: _315  and  _317
REMARK  135  A    between atoms: _317  and  _318
REMARK  136  A    between atoms: _320  and  _322
REMARK  137  A    between atoms: _322  and  _323
REMARK  138  A    between atoms: _322  and  _325
REMARK  139  A    between atoms: _328  and  _330
REMARK  140  A    between atoms: _330  and  _331
REMARK  141  A    between atoms: _330  and  _333
REMARK  142  A    between atoms: _333  and  _334
REMARK  143  A    between atoms: _334  and  _335
REMARK                            x       y       z     vdW  Elec       q    Type
REMARK                         _______ _______ _______ _____ _____    ______ ____
ROOT
ATOM      1  O   HOH     1      -6.276  67.022  42.465  0.00  0.00    +0.000 OA
ENDROOT
TORSDOF 0
REMARK  Name = ../refined-set-2016/1lcp/1lcp_pocket.pdb
REMARK  143 active torsions:
REMARK  status: ('A' for Active; 'I' for Inactive)
REMARK    1  A    between atoms: _1  and  _3
REMARK    2  A    between atoms: _3  and  _4
REMARK    3  A    between atoms: _3  and  _6
REMARK    4  A    between atoms: _6  and  _7
REMARK    5  A    between atoms: _7  and  _8
REMARK    6  A    between atoms: _8  and  _9
REMARK    7  A    between atoms: _9  and  _10
REMARK    8  A    between atoms: _14  and  _16
REMARK    9  A    between atoms: _16  and  _17
REMARK   10  A    between atoms: _16  and  _19
REMARK   11  A    between atoms: _19  and  _20
REMARK   12  A    between atoms: _23  and  _25
REMARK   13  A    between atoms: _25  and  _26
REMARK   14  A    between atoms: _25  and  _28
REMARK   15  A    between atoms: _28  and  _29
REMARK   16  A    between atoms: _35  and  _37
REMARK   17  A    between atoms: _37  and  _38
REMARK   18  A    between atoms: _37  and  _40
REMARK   19  A    between atoms: _40  and  _41
REMARK   20  A    between atoms: _41  and  _43
REMARK   21  A    between atoms: _43  and  ZN_337
REMARK   22  A    between atoms: _44  and  _46
REMARK   23  A    between atoms: _46  and  _47
REMARK   24  A    between atoms: _46  and  _49
REMARK   25  A    between atoms: _49  and  _50
REMARK   26  A    between atoms: _52  and  _54
REMARK   27  A    between atoms: _54  and  _55
REMARK   28  A    between atoms: _57  and  _59
REMARK   29  A    between atoms: _59  and  _60
REMARK   30  A    between atoms: _59  and  _62
REMARK   31  A    between atoms: _62  and  _63
REMARK   32  A    between atoms: _65  and  _67
REMARK   33  A    between atoms: _67  and  _68
REMARK   34  A    between atoms: _67  and  _70
REMARK   35  A    between atoms: _70  and  _71
REMARK   36  A    between atoms: _71  and  _72
REMARK   37  A    between atoms: _72  and  _73
REMARK   38  A    between atoms: _73  and  _74
REMARK   39  A    between atoms: _78  and  _80
REMARK   40  A    between atoms: _80  and  _81
REMARK   41  A    between atoms: _80  and  _83
REMARK   42  A    between atoms: _83  and  _84
REMARK   43  A    between atoms: _89  and  _91
REMARK   44  A    between atoms: _91  and  _92
REMARK   45  A    between atoms: _91  and  _94
REMARK   46  A    between atoms: _94  and  _95
REMARK   47  A    between atoms: _98  and  _100
REMARK   48  A    between atoms: _100  and  _101
REMARK   49  A    between atoms: _100  and  _103
REMARK   50  A    between atoms: _103  and  _104
REMARK   51  A    between atoms: _104  and  _105
REMARK   52  A    between atoms: _107  and  _109
REMARK   53  A    between atoms: _109  and  _110
REMARK   54  A    between atoms: _113  and  _115
REMARK   55  A    between atoms: _115  and  _116
REMARK   56  A    between atoms: _115  and  _118
REMARK   57  A    between atoms: _118  and  _119
REMARK   58  A    between atoms: _119  and  _121
REMARK   59  A    between atoms: _121  and  ZN_338
REMARK   60  A    between atoms: _122  and  _124
REMARK   61  A    between atoms: _124  and  _125
REMARK   62  A    between atoms: _124  and  _127
REMARK   63  A    between atoms: _127  and  _128
REMARK   64  A    between atoms: _128  and  _129
REMARK   65  A    between atoms: _131  and  _133
REMARK   66  A    between atoms: _133  and  _134
REMARK   67  A    between atoms: _136  and  _138
REMARK   68  A    between atoms: _138  and  _139
REMARK   69  A    between atoms: _138  and  _141
REMARK   70  A    between atoms: _141  and  _142
REMARK   71  A    between atoms: _147  and  _149
REMARK   72  A    between atoms: _149  and  _150
REMARK   73  A    between atoms: _149  and  _152
REMARK   74  A    between atoms: _152  and  _153
REMARK   75  A    between atoms: _158  and  _160
REMARK   76  A    between atoms: _160  and  _161
REMARK   77  A    between atoms: _160  and  _163
REMARK   78  A    between atoms: _163  and  _164
REMARK   79  A    between atoms: _167  and  _169
REMARK   80  A    between atoms: _184  and  _185
REMARK   81  A    between atoms: _189  and  _191
REMARK   82  A    between atoms: _191  and  ZN_338
REMARK   83  A    between atoms: _192  and  _194
REMARK   84  A    between atoms: _194  and  _195
REMARK   85  A    between atoms: _197  and  _199
REMARK   86  A    between atoms: _199  and  _200
REMARK   87  A    between atoms: _199  and  _202
REMARK   88  A    between atoms: _202  and  _203
REMARK   89  A    between atoms: _203  and  _204
REMARK   90  A    between atoms: _204  and  _205
REMARK   91  A    between atoms: _214  and  _216
REMARK   92  A    between atoms: _216  and  _217
REMARK   93  A    between atoms: _216  and  _219
REMARK   94  A    between atoms: _219  and  _220
REMARK   95  A    between atoms: _223  and  _225
REMARK   96  A    between atoms: _225  and  _226
REMARK   97  A    between atoms: _229  and  _231
REMARK   98  A    between atoms: _231  and  _232
REMARK   99  A    between atoms: _231  and  _234
REMARK  100  A    between atoms: _234  and  _235
REMARK  101  A    between atoms: _238  and  _240
REMARK  102  A    between atoms: _240  and  _241
REMARK  103  A    between atoms: _240  and  _243
REMARK  104  A    between atoms: _243  and  _244
REMARK  105  A    between atoms: _247  and  _249
REMARK  106  A    between atoms: _249  and  _250
REMARK  107  A    between atoms: _249  and  _252
REMARK  108  A    between atoms: _252  and  _253
REMARK  109  A    between atoms: _256  and  _258
REMARK  110  A    between atoms: _258  and  _259
REMARK  111  A    between atoms: _261  and  _263
REMARK  112  A    between atoms: _263  and  _264
REMARK  113  A    between atoms: _267  and  _269
REMARK  114  A    between atoms: _269  and  _270
REMARK  115  A    between atoms: _269  and  _272
REMARK  116  A    between atoms: _272  and  _273
REMARK  117  A    between atoms: _273  and  _274
REMARK  118  A    between atoms: _276  and  _278
REMARK  119  A    between atoms: _278  and  _279
REMARK  120  A    between atoms: _278  and  _281
REMARK  121  A    between atoms: _281  and  _282
REMARK  122  A    between atoms: _285  and  _287
REMARK  123  A    between atoms: _287  and  _288
REMARK  124  A    between atoms: _291  and  _293
REMARK  125  A    between atoms: _293  and  _294
REMARK  126  A    between atoms: _293  and  _296
REMARK  127  A    between atoms: _296  and  _297
REMARK  128  A    between atoms: _300  and  _302
REMARK  129  A    between atoms: _302  and  _303
REMARK  130  A    between atoms: _302  and  _305
REMARK  131  A    between atoms: _305  and  _306
REMARK  132  A    between atoms: _309  and  _311
REMARK  133  A    between atoms: _311  and  _312
REMARK  134  A    between atoms: _315  and  _317
REMARK  135  A    between atoms: _317  and  _318
REMARK  136  A    between atoms: _320  and  _322
REMARK  137  A    between atoms: _322  and  _323
REMARK  138  A    between atoms: _322  and  _325
REMARK  139  A    between atoms: _328  and  _330
REMARK  140  A    between atoms: _330  and  _331
REMARK  141  A    between atoms: _330  and  _333
REMARK  142  A    between atoms: _333  and  _334
REMARK  143  A    between atoms: _334  and  _335
REMARK                            x       y       z     vdW  Elec       q    Type
REMARK                         _______ _______ _______ _____ _____    ______ ____
ROOT
ATOM      1  O   HOH     1       0.574  59.547  41.807  0.00  0.00    +0.000 OA
ENDROOT
TORSDOF 0
REMARK  Name = ../refined-set-2016/1lcp/1lcp_pocket.pdb
REMARK  143 active torsions:
REMARK  status: ('A' for Active; 'I' for Inactive)
REMARK    1  A    between atoms: _1  and  _3
REMARK    2  A    between atoms: _3  and  _4
REMARK    3  A    between atoms: _3  and  _6
REMARK    4  A    between atoms: _6  and  _7
REMARK    5  A    between atoms: _7  and  _8
REMARK    6  A    between atoms: _8  and  _9
REMARK    7  A    between atoms: _9  and  _10
REMARK    8  A    between atoms: _14  and  _16
REMARK    9  A    between atoms: _16  and  _17
REMARK   10  A    between atoms: _16  and  _19
REMARK   11  A    between atoms: _19  and  _20
REMARK   12  A    between atoms: _23  and  _25
REMARK   13  A    between atoms: _25  and  _26
REMARK   14  A    between atoms: _25  and  _28
REMARK   15  A    between atoms: _28  and  _29
REMARK   16  A    between atoms: _35  and  _37
REMARK   17  A    between atoms: _37  and  _38
REMARK   18  A    between atoms: _37  and  _40
REMARK   19  A    between atoms: _40  and  _41
REMARK   20  A    between atoms: _41  and  _43
REMARK   21  A    between atoms: _43  and  ZN_337
REMARK   22  A    between atoms: _44  and  _46
REMARK   23  A    between atoms: _46  and  _47
REMARK   24  A    between atoms: _46  and  _49
REMARK   25  A    between atoms: _49  and  _50
REMARK   26  A    between atoms: _52  and  _54
REMARK   27  A    between atoms: _54  and  _55
REMARK   28  A    between atoms: _57  and  _59
REMARK   29  A    between atoms: _59  and  _60
REMARK   30  A    between atoms: _59  and  _62
REMARK   31  A    between atoms: _62  and  _63
REMARK   32  A    between atoms: _65  and  _67
REMARK   33  A    between atoms: _67  and  _68
REMARK   34  A    between atoms: _67  and  _70
REMARK   35  A    between atoms: _70  and  _71
REMARK   36  A    between atoms: _71  and  _72
REMARK   37  A    between atoms: _72  and  _73
REMARK   38  A    between atoms: _73  and  _74
REMARK   39  A    between atoms: _78  and  _80
REMARK   40  A    between atoms: _80  and  _81
REMARK   41  A    between atoms: _80  and  _83
REMARK   42  A    between atoms: _83  and  _84
REMARK   43  A    between atoms: _89  and  _91
REMARK   44  A    between atoms: _91  and  _92
REMARK   45  A    between atoms: _91  and  _94
REMARK   46  A    between atoms: _94  and  _95
REMARK   47  A    between atoms: _98  and  _100
REMARK   48  A    between atoms: _100  and  _101
REMARK   49  A    between atoms: _100  and  _103
REMARK   50  A    between atoms: _103  and  _104
REMARK   51  A    between atoms: _104  and  _105
REMARK   52  A    between atoms: _107  and  _109
REMARK   53  A    between atoms: _109  and  _110
REMARK   54  A    between atoms: _113  and  _115
REMARK   55  A    between atoms: _115  and  _116
REMARK   56  A    between atoms: _115  and  _118
REMARK   57  A    between atoms: _118  and  _119
REMARK   58  A    between atoms: _119  and  _121
REMARK   59  A    between atoms: _121  and  ZN_338
REMARK   60  A    between atoms: _122  and  _124
REMARK   61  A    between atoms: _124  and  _125
REMARK   62  A    between atoms: _124  and  _127
REMARK   63  A    between atoms: _127  and  _128
REMARK   64  A    between atoms: _128  and  _129
REMARK   65  A    between atoms: _131  and  _133
REMARK   66  A    between atoms: _133  and  _134
REMARK   67  A    between atoms: _136  and  _138
REMARK   68  A    between atoms: _138  and  _139
REMARK   69  A    between atoms: _138  and  _141
REMARK   70  A    between atoms: _141  and  _142
REMARK   71  A    between atoms: _147  and  _149
REMARK   72  A    between atoms: _149  and  _150
REMARK   73  A    between atoms: _149  and  _152
REMARK   74  A    between atoms: _152  and  _153
REMARK   75  A    between atoms: _158  and  _160
REMARK   76  A    between atoms: _160  and  _161
REMARK   77  A    between atoms: _160  and  _163
REMARK   78  A    between atoms: _163  and  _164
REMARK   79  A    between atoms: _167  and  _169
REMARK   80  A    between atoms: _184  and  _185
REMARK   81  A    between atoms: _189  and  _191
REMARK   82  A    between atoms: _191  and  ZN_338
REMARK   83  A    between atoms: _192  and  _194
REMARK   84  A    between atoms: _194  and  _195
REMARK   85  A    between atoms: _197  and  _199
REMARK   86  A    between atoms: _199  and  _200
REMARK   87  A    between atoms: _199  and  _202
REMARK   88  A    between atoms: _202  and  _203
REMARK   89  A    between atoms: _203  and  _204
REMARK   90  A    between atoms: _204  and  _205
REMARK   91  A    between atoms: _214  and  _216
REMARK   92  A    between atoms: _216  and  _217
REMARK   93  A    between atoms: _216  and  _219
REMARK   94  A    between atoms: _219  and  _220
REMARK   95  A    between atoms: _223  and  _225
REMARK   96  A    between atoms: _225  and  _226
REMARK   97  A    between atoms: _229  and  _231
REMARK   98  A    between atoms: _231  and  _232
REMARK   99  A    between atoms: _231  and  _234
REMARK  100  A    between atoms: _234  and  _235
REMARK  101  A    between atoms: _238  and  _240
REMARK  102  A    between atoms: _240  and  _241
REMARK  103  A    between atoms: _240  and  _243
REMARK  104  A    between atoms: _243  and  _244
REMARK  105  A    between atoms: _247  and  _249
REMARK  106  A    between atoms: _249  and  _250
REMARK  107  A    between atoms: _249  and  _252
REMARK  108  A    between atoms: _252  and  _253
REMARK  109  A    between atoms: _256  and  _258
REMARK  110  A    between atoms: _258  and  _259
REMARK  111  A    between atoms: _261  and  _263
REMARK  112  A    between atoms: _263  and  _264
REMARK  113  A    between atoms: _267  and  _269
REMARK  114  A    between atoms: _269  and  _270
REMARK  115  A    between atoms: _269  and  _272
REMARK  116  A    between atoms: _272  and  _273
REMARK  117  A    between atoms: _273  and  _274
REMARK  118  A    between atoms: _276  and  _278
REMARK  119  A    between atoms: _278  and  _279
REMARK  120  A    between atoms: _278  and  _281
REMARK  121  A    between atoms: _281  and  _282
REMARK  122  A    between atoms: _285  and  _287
REMARK  123  A    between atoms: _287  and  _288
REMARK  124  A    between atoms: _291  and  _293
REMARK  125  A    between atoms: _293  and  _294
REMARK  126  A    between atoms: _293  and  _296
REMARK  127  A    between atoms: _296  and  _297
REMARK  128  A    between atoms: _300  and  _302
REMARK  129  A    between atoms: _302  and  _303
REMARK  130  A    between atoms: _302  and  _305
REMARK  131  A    between atoms: _305  and  _306
REMARK  132  A    between atoms: _309  and  _311
REMARK  133  A    between atoms: _311  and  _312
REMARK  134  A    between atoms: _315  and  _317
REMARK  135  A    between atoms: _317  and  _318
REMARK  136  A    between atoms: _320  and  _322
REMARK  137  A    between atoms: _322  and  _323
REMARK  138  A    between atoms: _322  and  _325
REMARK  139  A    between atoms: _328  and  _330
REMARK  140  A    between atoms: _330  and  _331
REMARK  141  A    between atoms: _330  and  _333
REMARK  142  A    between atoms: _333  and  _334
REMARK  143  A    between atoms: _334  and  _335
REMARK                            x       y       z     vdW  Elec       q    Type
REMARK                         _______ _______ _______ _____ _____    ______ ____
ROOT
ATOM      1  O   HOH     1      -2.579  66.964  41.458  0.00  0.00    +0.000 OA
ENDROOT
TORSDOF 0
REMARK  Name = ../refined-set-2016/1lcp/1lcp_pocket.pdb
REMARK  143 active torsions:
REMARK  status: ('A' for Active; 'I' for Inactive)
REMARK    1  A    between atoms: _1  and  _3
REMARK    2  A    between atoms: _3  and  _4
REMARK    3  A    between atoms: _3  and  _6
REMARK    4  A    between atoms: _6  and  _7
REMARK    5  A    between atoms: _7  and  _8
REMARK    6  A    between atoms: _8  and  _9
REMARK    7  A    between atoms: _9  and  _10
REMARK    8  A    between atoms: _14  and  _16
REMARK    9  A    between atoms: _16  and  _17
REMARK   10  A    between atoms: _16  and  _19
REMARK   11  A    between atoms: _19  and  _20
REMARK   12  A    between atoms: _23  and  _25
REMARK   13  A    between atoms: _25  and  _26
REMARK   14  A    between atoms: _25  and  _28
REMARK   15  A    between atoms: _28  and  _29
REMARK   16  A    between atoms: _35  and  _37
REMARK   17  A    between atoms: _37  and  _38
REMARK   18  A    between atoms: _37  and  _40
REMARK   19  A    between atoms: _40  and  _41
REMARK   20  A    between atoms: _41  and  _43
REMARK   21  A    between atoms: _43  and  ZN_337
REMARK   22  A    between atoms: _44  and  _46
REMARK   23  A    between atoms: _46  and  _47
REMARK   24  A    between atoms: _46  and  _49
REMARK   25  A    between atoms: _49  and  _50
REMARK   26  A    between atoms: _52  and  _54
REMARK   27  A    between atoms: _54  and  _55
REMARK   28  A    between atoms: _57  and  _59
REMARK   29  A    between atoms: _59  and  _60
REMARK   30  A    between atoms: _59  and  _62
REMARK   31  A    between atoms: _62  and  _63
REMARK   32  A    between atoms: _65  and  _67
REMARK   33  A    between atoms: _67  and  _68
REMARK   34  A    between atoms: _67  and  _70
REMARK   35  A    between atoms: _70  and  _71
REMARK   36  A    between atoms: _71  and  _72
REMARK   37  A    between atoms: _72  and  _73
REMARK   38  A    between atoms: _73  and  _74
REMARK   39  A    between atoms: _78  and  _80
REMARK   40  A    between atoms: _80  and  _81
REMARK   41  A    between atoms: _80  and  _83
REMARK   42  A    between atoms: _83  and  _84
REMARK   43  A    between atoms: _89  and  _91
REMARK   44  A    between atoms: _91  and  _92
REMARK   45  A    between atoms: _91  and  _94
REMARK   46  A    between atoms: _94  and  _95
REMARK   47  A    between atoms: _98  and  _100
REMARK   48  A    between atoms: _100  and  _101
REMARK   49  A    between atoms: _100  and  _103
REMARK   50  A    between atoms: _103  and  _104
REMARK   51  A    between atoms: _104  and  _105
REMARK   52  A    between atoms: _107  and  _109
REMARK   53  A    between atoms: _109  and  _110
REMARK   54  A    between atoms: _113  and  _115
REMARK   55  A    between atoms: _115  and  _116
REMARK   56  A    between atoms: _115  and  _118
REMARK   57  A    between atoms: _118  and  _119
REMARK   58  A    between atoms: _119  and  _121
REMARK   59  A    between atoms: _121  and  ZN_338
REMARK   60  A    between atoms: _122  and  _124
REMARK   61  A    between atoms: _124  and  _125
REMARK   62  A    between atoms: _124  and  _127
REMARK   63  A    between atoms: _127  and  _128
REMARK   64  A    between atoms: _128  and  _129
REMARK   65  A    between atoms: _131  and  _133
REMARK   66  A    between atoms: _133  and  _134
REMARK   67  A    between atoms: _136  and  _138
REMARK   68  A    between atoms: _138  and  _139
REMARK   69  A    between atoms: _138  and  _141
REMARK   70  A    between atoms: _141  and  _142
REMARK   71  A    between atoms: _147  and  _149
REMARK   72  A    between atoms: _149  and  _150
REMARK   73  A    between atoms: _149  and  _152
REMARK   74  A    between atoms: _152  and  _153
REMARK   75  A    between atoms: _158  and  _160
REMARK   76  A    between atoms: _160  and  _161
REMARK   77  A    between atoms: _160  and  _163
REMARK   78  A    between atoms: _163  and  _164
REMARK   79  A    between atoms: _167  and  _169
REMARK   80  A    between atoms: _184  and  _185
REMARK   81  A    between atoms: _189  and  _191
REMARK   82  A    between atoms: _191  and  ZN_338
REMARK   83  A    between atoms: _192  and  _194
REMARK   84  A    between atoms: _194  and  _195
REMARK   85  A    between atoms: _197  and  _199
REMARK   86  A    between atoms: _199  and  _200
REMARK   87  A    between atoms: _199  and  _202
REMARK   88  A    between atoms: _202  and  _203
REMARK   89  A    between atoms: _203  and  _204
REMARK   90  A    between atoms: _204  and  _205
REMARK   91  A    between atoms: _214  and  _216
REMARK   92  A    between atoms: _216  and  _217
REMARK   93  A    between atoms: _216  and  _219
REMARK   94  A    between atoms: _219  and  _220
REMARK   95  A    between atoms: _223  and  _225
REMARK   96  A    between atoms: _225  and  _226
REMARK   97  A    between atoms: _229  and  _231
REMARK   98  A    between atoms: _231  and  _232
REMARK   99  A    between atoms: _231  and  _234
REMARK  100  A    between atoms: _234  and  _235
REMARK  101  A    between atoms: _238  and  _240
REMARK  102  A    between atoms: _240  and  _241
REMARK  103  A    between atoms: _240  and  _243
REMARK  104  A    between atoms: _243  and  _244
REMARK  105  A    between atoms: _247  and  _249
REMARK  106  A    between atoms: _249  and  _250
REMARK  107  A    between atoms: _249  and  _252
REMARK  108  A    between atoms: _252  and  _253
REMARK  109  A    between atoms: _256  and  _258
REMARK  110  A    between atoms: _258  and  _259
REMARK  111  A    between atoms: _261  and  _263
REMARK  112  A    between atoms: _263  and  _264
REMARK  113  A    between atoms: _267  and  _269
REMARK  114  A    between atoms: _269  and  _270
REMARK  115  A    between atoms: _269  and  _272
REMARK  116  A    between atoms: _272  and  _273
REMARK  117  A    between atoms: _273  and  _274
REMARK  118  A    between atoms: _276  and  _278
REMARK  119  A    between atoms: _278  and  _279
REMARK  120  A    between atoms: _278  and  _281
REMARK  121  A    between atoms: _281  and  _282
REMARK  122  A    between atoms: _285  and  _287
REMARK  123  A    between atoms: _287  and  _288
REMARK  124  A    between atoms: _291  and  _293
REMARK  125  A    between atoms: _293  and  _294
REMARK  126  A    between atoms: _293  and  _296
REMARK  127  A    between atoms: _296  and  _297
REMARK  128  A    between atoms: _300  and  _302
REMARK  129  A    between atoms: _302  and  _303
REMARK  130  A    between atoms: _302  and  _305
REMARK  131  A    between atoms: _305  and  _306
REMARK  132  A    between atoms: _309  and  _311
REMARK  133  A    between atoms: _311  and  _312
REMARK  134  A    between atoms: _315  and  _317
REMARK  135  A    between atoms: _317  and  _318
REMARK  136  A    between atoms: _320  and  _322
REMARK  137  A    between atoms: _322  and  _323
REMARK  138  A    between atoms: _322  and  _325
REMARK  139  A    between atoms: _328  and  _330
REMARK  140  A    between atoms: _330  and  _331
REMARK  141  A    between atoms: _330  and  _333
REMARK  142  A    between atoms: _333  and  _334
REMARK  143  A    between atoms: _334  and  _335
REMARK                            x       y       z     vdW  Elec       q    Type
REMARK                         _______ _______ _______ _____ _____    ______ ____
ROOT
ATOM      1  O   HOH     1       3.236  58.109  44.545  0.00  0.00    +0.000 OA
ENDROOT
TORSDOF 0
REMARK  Name = ../refined-set-2016/1lcp/1lcp_pocket.pdb
REMARK  143 active torsions:
REMARK  status: ('A' for Active; 'I' for Inactive)
REMARK    1  A    between atoms: _1  and  _3
REMARK    2  A    between atoms: _3  and  _4
REMARK    3  A    between atoms: _3  and  _6
REMARK    4  A    between atoms: _6  and  _7
REMARK    5  A    between atoms: _7  and  _8
REMARK    6  A    between atoms: _8  and  _9
REMARK    7  A    between atoms: _9  and  _10
REMARK    8  A    between atoms: _14  and  _16
REMARK    9  A    between atoms: _16  and  _17
REMARK   10  A    between atoms: _16  and  _19
REMARK   11  A    between atoms: _19  and  _20
REMARK   12  A    between atoms: _23  and  _25
REMARK   13  A    between atoms: _25  and  _26
REMARK   14  A    between atoms: _25  and  _28
REMARK   15  A    between atoms: _28  and  _29
REMARK   16  A    between atoms: _35  and  _37
REMARK   17  A    between atoms: _37  and  _38
REMARK   18  A    between atoms: _37  and  _40
REMARK   19  A    between atoms: _40  and  _41
REMARK   20  A    between atoms: _41  and  _43
REMARK   21  A    between atoms: _43  and  ZN_337
REMARK   22  A    between atoms: _44  and  _46
REMARK   23  A    between atoms: _46  and  _47
REMARK   24  A    between atoms: _46  and  _49
REMARK   25  A    between atoms: _49  and  _50
REMARK   26  A    between atoms: _52  and  _54
REMARK   27  A    between atoms: _54  and  _55
REMARK   28  A    between atoms: _57  and  _59
REMARK   29  A    between atoms: _59  and  _60
REMARK   30  A    between atoms: _59  and  _62
REMARK   31  A    between atoms: _62  and  _63
REMARK   32  A    between atoms: _65  and  _67
REMARK   33  A    between atoms: _67  and  _68
REMARK   34  A    between atoms: _67  and  _70
REMARK   35  A    between atoms: _70  and  _71
REMARK   36  A    between atoms: _71  and  _72
REMARK   37  A    between atoms: _72  and  _73
REMARK   38  A    between atoms: _73  and  _74
REMARK   39  A    between atoms: _78  and  _80
REMARK   40  A    between atoms: _80  and  _81
REMARK   41  A    between atoms: _80  and  _83
REMARK   42  A    between atoms: _83  and  _84
REMARK   43  A    between atoms: _89  and  _91
REMARK   44  A    between atoms: _91  and  _92
REMARK   45  A    between atoms: _91  and  _94
REMARK   46  A    between atoms: _94  and  _95
REMARK   47  A    between atoms: _98  and  _100
REMARK   48  A    between atoms: _100  and  _101
REMARK   49  A    between atoms: _100  and  _103
REMARK   50  A    between atoms: _103  and  _104
REMARK   51  A    between atoms: _104  and  _105
REMARK   52  A    between atoms: _107  and  _109
REMARK   53  A    between atoms: _109  and  _110
REMARK   54  A    between atoms: _113  and  _115
REMARK   55  A    between atoms: _115  and  _116
REMARK   56  A    between atoms: _115  and  _118
REMARK   57  A    between atoms: _118  and  _119
REMARK   58  A    between atoms: _119  and  _121
REMARK   59  A    between atoms: _121  and  ZN_338
REMARK   60  A    between atoms: _122  and  _124
REMARK   61  A    between atoms: _124  and  _125
REMARK   62  A    between atoms: _124  and  _127
REMARK   63  A    between atoms: _127  and  _128
REMARK   64  A    between atoms: _128  and  _129
REMARK   65  A    between atoms: _131  and  _133
REMARK   66  A    between atoms: _133  and  _134
REMARK   67  A    between atoms: _136  and  _138
REMARK   68  A    between atoms: _138  and  _139
REMARK   69  A    between atoms: _138  and  _141
REMARK   70  A    between atoms: _141  and  _142
REMARK   71  A    between atoms: _147  and  _149
REMARK   72  A    between atoms: _149  and  _150
REMARK   73  A    between atoms: _149  and  _152
REMARK   74  A    between atoms: _152  and  _153
REMARK   75  A    between atoms: _158  and  _160
REMARK   76  A    between atoms: _160  and  _161
REMARK   77  A    between atoms: _160  and  _163
REMARK   78  A    between atoms: _163  and  _164
REMARK   79  A    between atoms: _167  and  _169
REMARK   80  A    between atoms: _184  and  _185
REMARK   81  A    between atoms: _189  and  _191
REMARK   82  A    between atoms: _191  and  ZN_338
REMARK   83  A    between atoms: _192  and  _194
REMARK   84  A    between atoms: _194  and  _195
REMARK   85  A    between atoms: _197  and  _199
REMARK   86  A    between atoms: _199  and  _200
REMARK   87  A    between atoms: _199  and  _202
REMARK   88  A    between atoms: _202  and  _203
REMARK   89  A    between atoms: _203  and  _204
REMARK   90  A    between atoms: _204  and  _205
REMARK   91  A    between atoms: _214  and  _216
REMARK   92  A    between atoms: _216  and  _217
REMARK   93  A    between atoms: _216  and  _219
REMARK   94  A    between atoms: _219  and  _220
REMARK   95  A    between atoms: _223  and  _225
REMARK   96  A    between atoms: _225  and  _226
REMARK   97  A    between atoms: _229  and  _231
REMARK   98  A    between atoms: _231  and  _232
REMARK   99  A    between atoms: _231  and  _234
REMARK  100  A    between atoms: _234  and  _235
REMARK  101  A    between atoms: _238  and  _240
REMARK  102  A    between atoms: _240  and  _241
REMARK  103  A    between atoms: _240  and  _243
REMARK  104  A    between atoms: _243  and  _244
REMARK  105  A    between atoms: _247  and  _249
REMARK  106  A    between atoms: _249  and  _250
REMARK  107  A    between atoms: _249  and  _252
REMARK  108  A    between atoms: _252  and  _253
REMARK  109  A    between atoms: _256  and  _258
REMARK  110  A    between atoms: _258  and  _259
REMARK  111  A    between atoms: _261  and  _263
REMARK  112  A    between atoms: _263  and  _264
REMARK  113  A    between atoms: _267  and  _269
REMARK  114  A    between atoms: _269  and  _270
REMARK  115  A    between atoms: _269  and  _272
REMARK  116  A    between atoms: _272  and  _273
REMARK  117  A    between atoms: _273  and  _274
REMARK  118  A    between atoms: _276  and  _278
REMARK  119  A    between atoms: _278  and  _279
REMARK  120  A    between atoms: _278  and  _281
REMARK  121  A    between atoms: _281  and  _282
REMARK  122  A    between atoms: _285  and  _287
REMARK  123  A    between atoms: _287  and  _288
REMARK  124  A    between atoms: _291  and  _293
REMARK  125  A    between atoms: _293  and  _294
REMARK  126  A    between atoms: _293  and  _296
REMARK  127  A    between atoms: _296  and  _297
REMARK  128  A    between atoms: _300  and  _302
REMARK  129  A    between atoms: _302  and  _303
REMARK  130  A    between atoms: _302  and  _305
REMARK  131  A    between atoms: _305  and  _306
REMARK  132  A    between atoms: _309  and  _311
REMARK  133  A    between atoms: _311  and  _312
REMARK  134  A    between atoms: _315  and  _317
REMARK  135  A    between atoms: _317  and  _318
REMARK  136  A    between atoms: _320  and  _322
REMARK  137  A    between atoms: _322  and  _323
REMARK  138  A    between atoms: _322  and  _325
REMARK  139  A    between atoms: _328  and  _330
REMARK  140  A    between atoms: _330  and  _331
REMARK  141  A    between atoms: _330  and  _333
REMARK  142  A    between atoms: _333  and  _334
REMARK  143  A    between atoms: _334  and  _335
REMARK                            x       y       z     vdW  Elec       q    Type
REMARK                         _______ _______ _______ _____ _____    ______ ____
ROOT
ATOM      1  O   HOH     1      -5.838  64.109  42.842  0.00  0.00    +0.000 OA
ENDROOT
TORSDOF 0
REMARK  Name = ../refined-set-2016/1lcp/1lcp_pocket.pdb
REMARK  143 active torsions:
REMARK  status: ('A' for Active; 'I' for Inactive)
REMARK    1  A    between atoms: _1  and  _3
REMARK    2  A    between atoms: _3  and  _4
REMARK    3  A    between atoms: _3  and  _6
REMARK    4  A    between atoms: _6  and  _7
REMARK    5  A    between atoms: _7  and  _8
REMARK    6  A    between atoms: _8  and  _9
REMARK    7  A    between atoms: _9  and  _10
REMARK    8  A    between atoms: _14  and  _16
REMARK    9  A    between atoms: _16  and  _17
REMARK   10  A    between atoms: _16  and  _19
REMARK   11  A    between atoms: _19  and  _20
REMARK   12  A    between atoms: _23  and  _25
REMARK   13  A    between atoms: _25  and  _26
REMARK   14  A    between atoms: _25  and  _28
REMARK   15  A    between atoms: _28  and  _29
REMARK   16  A    between atoms: _35  and  _37
REMARK   17  A    between atoms: _37  and  _38
REMARK   18  A    between atoms: _37  and  _40
REMARK   19  A    between atoms: _40  and  _41
REMARK   20  A    between atoms: _41  and  _43
REMARK   21  A    between atoms: _43  and  ZN_337
REMARK   22  A    between atoms: _44  and  _46
REMARK   23  A    between atoms: _46  and  _47
REMARK   24  A    between atoms: _46  and  _49
REMARK   25  A    between atoms: _49  and  _50
REMARK   26  A    between atoms: _52  and  _54
REMARK   27  A    between atoms: _54  and  _55
REMARK   28  A    between atoms: _57  and  _59
REMARK   29  A    between atoms: _59  and  _60
REMARK   30  A    between atoms: _59  and  _62
REMARK   31  A    between atoms: _62  and  _63
REMARK   32  A    between atoms: _65  and  _67
REMARK   33  A    between atoms: _67  and  _68
REMARK   34  A    between atoms: _67  and  _70
REMARK   35  A    between atoms: _70  and  _71
REMARK   36  A    between atoms: _71  and  _72
REMARK   37  A    between atoms: _72  and  _73
REMARK   38  A    between atoms: _73  and  _74
REMARK   39  A    between atoms: _78  and  _80
REMARK   40  A    between atoms: _80  and  _81
REMARK   41  A    between atoms: _80  and  _83
REMARK   42  A    between atoms: _83  and  _84
REMARK   43  A    between atoms: _89  and  _91
REMARK   44  A    between atoms: _91  and  _92
REMARK   45  A    between atoms: _91  and  _94
REMARK   46  A    between atoms: _94  and  _95
REMARK   47  A    between atoms: _98  and  _100
REMARK   48  A    between atoms: _100  and  _101
REMARK   49  A    between atoms: _100  and  _103
REMARK   50  A    between atoms: _103  and  _104
REMARK   51  A    between atoms: _104  and  _105
REMARK   52  A    between atoms: _107  and  _109
REMARK   53  A    between atoms: _109  and  _110
REMARK   54  A    between atoms: _113  and  _115
REMARK   55  A    between atoms: _115  and  _116
REMARK   56  A    between atoms: _115  and  _118
REMARK   57  A    between atoms: _118  and  _119
REMARK   58  A    between atoms: _119  and  _121
REMARK   59  A    between atoms: _121  and  ZN_338
REMARK   60  A    between atoms: _122  and  _124
REMARK   61  A    between atoms: _124  and  _125
REMARK   62  A    between atoms: _124  and  _127
REMARK   63  A    between atoms: _127  and  _128
REMARK   64  A    between atoms: _128  and  _129
REMARK   65  A    between atoms: _131  and  _133
REMARK   66  A    between atoms: _133  and  _134
REMARK   67  A    between atoms: _136  and  _138
REMARK   68  A    between atoms: _138  and  _139
REMARK   69  A    between atoms: _138  and  _141
REMARK   70  A    between atoms: _141  and  _142
REMARK   71  A    between atoms: _147  and  _149
REMARK   72  A    between atoms: _149  and  _150
REMARK   73  A    between atoms: _149  and  _152
REMARK   74  A    between atoms: _152  and  _153
REMARK   75  A    between atoms: _158  and  _160
REMARK   76  A    between atoms: _160  and  _161
REMARK   77  A    between atoms: _160  and  _163
REMARK   78  A    between atoms: _163  and  _164
REMARK   79  A    between atoms: _167  and  _169
REMARK   80  A    between atoms: _184  and  _185
REMARK   81  A    between atoms: _189  and  _191
REMARK   82  A    between atoms: _191  and  ZN_338
REMARK   83  A    between atoms: _192  and  _194
REMARK   84  A    between atoms: _194  and  _195
REMARK   85  A    between atoms: _197  and  _199
REMARK   86  A    between atoms: _199  and  _200
REMARK   87  A    between atoms: _199  and  _202
REMARK   88  A    between atoms: _202  and  _203
REMARK   89  A    between atoms: _203  and  _204
REMARK   90  A    between atoms: _204  and  _205
REMARK   91  A    between atoms: _214  and  _216
REMARK   92  A    between atoms: _216  and  _217
REMARK   93  A    between atoms: _216  and  _219
REMARK   94  A    between atoms: _219  and  _220
REMARK   95  A    between atoms: _223  and  _225
REMARK   96  A    between atoms: _225  and  _226
REMARK   97  A    between atoms: _229  and  _231
REMARK   98  A    between atoms: _231  and  _232
REMARK   99  A    between atoms: _231  and  _234
REMARK  100  A    between atoms: _234  and  _235
REMARK  101  A    between atoms: _238  and  _240
REMARK  102  A    between atoms: _240  and  _241
REMARK  103  A    between atoms: _240  and  _243
REMARK  104  A    between atoms: _243  and  _244
REMARK  105  A    between atoms: _247  and  _249
REMARK  106  A    between atoms: _249  and  _250
REMARK  107  A    between atoms: _249  and  _252
REMARK  108  A    between atoms: _252  and  _253
REMARK  109  A    between atoms: _256  and  _258
REMARK  110  A    between atoms: _258  and  _259
REMARK  111  A    between atoms: _261  and  _263
REMARK  112  A    between atoms: _263  and  _264
REMARK  113  A    between atoms: _267  and  _269
REMARK  114  A    between atoms: _269  and  _270
REMARK  115  A    between atoms: _269  and  _272
REMARK  116  A    between atoms: _272  and  _273
REMARK  117  A    between atoms: _273  and  _274
REMARK  118  A    between atoms: _276  and  _278
REMARK  119  A    between atoms: _278  and  _279
REMARK  120  A    between atoms: _278  and  _281
REMARK  121  A    between atoms: _281  and  _282
REMARK  122  A    between atoms: _285  and  _287
REMARK  123  A    between atoms: _287  and  _288
REMARK  124  A    between atoms: _291  and  _293
REMARK  125  A    between atoms: _293  and  _294
REMARK  126  A    between atoms: _293  and  _296
REMARK  127  A    between atoms: _296  and  _297
REMARK  128  A    between atoms: _300  and  _302
REMARK  129  A    between atoms: _302  and  _303
REMARK  130  A    between atoms: _302  and  _305
REMARK  131  A    between atoms: _305  and  _306
REMARK  132  A    between atoms: _309  and  _311
REMARK  133  A    between atoms: _311  and  _312
REMARK  134  A    between atoms: _315  and  _317
REMARK  135  A    between atoms: _317  and  _318
REMARK  136  A    between atoms: _320  and  _322
REMARK  137  A    between atoms: _322  and  _323
REMARK  138  A    between atoms: _322  and  _325
REMARK  139  A    between atoms: _328  and  _330
REMARK  140  A    between atoms: _330  and  _331
REMARK  141  A    between atoms: _330  and  _333
REMARK  142  A    between atoms: _333  and  _334
REMARK  143  A    between atoms: _334  and  _335
REMARK                            x       y       z     vdW  Elec       q    Type
REMARK                         _______ _______ _______ _____ _____    ______ ____
ROOT
ATOM      1  O   HOH     1      -8.288  57.085  40.100  0.00  0.00    +0.000 OA
ENDROOT
TORSDOF 0
REMARK  Name = ../refined-set-2016/1lcp/1lcp_pocket.pdb
REMARK  143 active torsions:
REMARK  status: ('A' for Active; 'I' for Inactive)
REMARK    1  A    between atoms: _1  and  _3
REMARK    2  A    between atoms: _3  and  _4
REMARK    3  A    between atoms: _3  and  _6
REMARK    4  A    between atoms: _6  and  _7
REMARK    5  A    between atoms: _7  and  _8
REMARK    6  A    between atoms: _8  and  _9
REMARK    7  A    between atoms: _9  and  _10
REMARK    8  A    between atoms: _14  and  _16
REMARK    9  A    between atoms: _16  and  _17
REMARK   10  A    between atoms: _16  and  _19
REMARK   11  A    between atoms: _19  and  _20
REMARK   12  A    between atoms: _23  and  _25
REMARK   13  A    between atoms: _25  and  _26
REMARK   14  A    between atoms: _25  and  _28
REMARK   15  A    between atoms: _28  and  _29
REMARK   16  A    between atoms: _35  and  _37
REMARK   17  A    between atoms: _37  and  _38
REMARK   18  A    between atoms: _37  and  _40
REMARK   19  A    between atoms: _40  and  _41
REMARK   20  A    between atoms: _41  and  _43
REMARK   21  A    between atoms: _43  and  ZN_337
REMARK   22  A    between atoms: _44  and  _46
REMARK   23  A    between atoms: _46  and  _47
REMARK   24  A    between atoms: _46  and  _49
REMARK   25  A    between atoms: _49  and  _50
REMARK   26  A    between atoms: _52  and  _54
REMARK   27  A    between atoms: _54  and  _55
REMARK   28  A    between atoms: _57  and  _59
REMARK   29  A    between atoms: _59  and  _60
REMARK   30  A    between atoms: _59  and  _62
REMARK   31  A    between atoms: _62  and  _63
REMARK   32  A    between atoms: _65  and  _67
REMARK   33  A    between atoms: _67  and  _68
REMARK   34  A    between atoms: _67  and  _70
REMARK   35  A    between atoms: _70  and  _71
REMARK   36  A    between atoms: _71  and  _72
REMARK   37  A    between atoms: _72  and  _73
REMARK   38  A    between atoms: _73  and  _74
REMARK   39  A    between atoms: _78  and  _80
REMARK   40  A    between atoms: _80  and  _81
REMARK   41  A    between atoms: _80  and  _83
REMARK   42  A    between atoms: _83  and  _84
REMARK   43  A    between atoms: _89  and  _91
REMARK   44  A    between atoms: _91  and  _92
REMARK   45  A    between atoms: _91  and  _94
REMARK   46  A    between atoms: _94  and  _95
REMARK   47  A    between atoms: _98  and  _100
REMARK   48  A    between atoms: _100  and  _101
REMARK   49  A    between atoms: _100  and  _103
REMARK   50  A    between atoms: _103  and  _104
REMARK   51  A    between atoms: _104  and  _105
REMARK   52  A    between atoms: _107  and  _109
REMARK   53  A    between atoms: _109  and  _110
REMARK   54  A    between atoms: _113  and  _115
REMARK   55  A    between atoms: _115  and  _116
REMARK   56  A    between atoms: _115  and  _118
REMARK   57  A    between atoms: _118  and  _119
REMARK   58  A    between atoms: _119  and  _121
REMARK   59  A    between atoms: _121  and  ZN_338
REMARK   60  A    between atoms: _122  and  _124
REMARK   61  A    between atoms: _124  and  _125
REMARK   62  A    between atoms: _124  and  _127
REMARK   63  A    between atoms: _127  and  _128
REMARK   64  A    between atoms: _128  and  _129
REMARK   65  A    between atoms: _131  and  _133
REMARK   66  A    between atoms: _133  and  _134
REMARK   67  A    between atoms: _136  and  _138
REMARK   68  A    between atoms: _138  and  _139
REMARK   69  A    between atoms: _138  and  _141
REMARK   70  A    between atoms: _141  and  _142
REMARK   71  A    between atoms: _147  and  _149
REMARK   72  A    between atoms: _149  and  _150
REMARK   73  A    between atoms: _149  and  _152
REMARK   74  A    between atoms: _152  and  _153
REMARK   75  A    between atoms: _158  and  _160
REMARK   76  A    between atoms: _160  and  _161
REMARK   77  A    between atoms: _160  and  _163
REMARK   78  A    between atoms: _163  and  _164
REMARK   79  A    between atoms: _167  and  _169
REMARK   80  A    between atoms: _184  and  _185
REMARK   81  A    between atoms: _189  and  _191
REMARK   82  A    between atoms: _191  and  ZN_338
REMARK   83  A    between atoms: _192  and  _194
REMARK   84  A    between atoms: _194  and  _195
REMARK   85  A    between atoms: _197  and  _199
REMARK   86  A    between atoms: _199  and  _200
REMARK   87  A    between atoms: _199  and  _202
REMARK   88  A    between atoms: _202  and  _203
REMARK   89  A    between atoms: _203  and  _204
REMARK   90  A    between atoms: _204  and  _205
REMARK   91  A    between atoms: _214  and  _216
REMARK   92  A    between atoms: _216  and  _217
REMARK   93  A    between atoms: _216  and  _219
REMARK   94  A    between atoms: _219  and  _220
REMARK   95  A    between atoms: _223  and  _225
REMARK   96  A    between atoms: _225  and  _226
REMARK   97  A    between atoms: _229  and  _231
REMARK   98  A    between atoms: _231  and  _232
REMARK   99  A    between atoms: _231  and  _234
REMARK  100  A    between atoms: _234  and  _235
REMARK  101  A    between atoms: _238  and  _240
REMARK  102  A    between atoms: _240  and  _241
REMARK  103  A    between atoms: _240  and  _243
REMARK  104  A    between atoms: _243  and  _244
REMARK  105  A    between atoms: _247  and  _249
REMARK  106  A    between atoms: _249  and  _250
REMARK  107  A    between atoms: _249  and  _252
REMARK  108  A    between atoms: _252  and  _253
REMARK  109  A    between atoms: _256  and  _258
REMARK  110  A    between atoms: _258  and  _259
REMARK  111  A    between atoms: _261  and  _263
REMARK  112  A    between atoms: _263  and  _264
REMARK  113  A    between atoms: _267  and  _269
REMARK  114  A    between atoms: _269  and  _270
REMARK  115  A    between atoms: _269  and  _272
REMARK  116  A    between atoms: _272  and  _273
REMARK  117  A    between atoms: _273  and  _274
REMARK  118  A    between atoms: _276  and  _278
REMARK  119  A    between atoms: _278  and  _279
REMARK  120  A    between atoms: _278  and  _281
REMARK  121  A    between atoms: _281  and  _282
REMARK  122  A    between atoms: _285  and  _287
REMARK  123  A    between atoms: _287  and  _288
REMARK  124  A    between atoms: _291  and  _293
REMARK  125  A    between atoms: _293  and  _294
REMARK  126  A    between atoms: _293  and  _296
REMARK  127  A    between atoms: _296  and  _297
REMARK  128  A    between atoms: _300  and  _302
REMARK  129  A    between atoms: _302  and  _303
REMARK  130  A    between atoms: _302  and  _305
REMARK  131  A    between atoms: _305  and  _306
REMARK  132  A    between atoms: _309  and  _311
REMARK  133  A    between atoms: _311  and  _312
REMARK  134  A    between atoms: _315  and  _317
REMARK  135  A    between atoms: _317  and  _318
REMARK  136  A    between atoms: _320  and  _322
REMARK  137  A    between atoms: _322  and  _323
REMARK  138  A    between atoms: _322  and  _325
REMARK  139  A    between atoms: _328  and  _330
REMARK  140  A    between atoms: _330  and  _331
REMARK  141  A    between atoms: _330  and  _333
REMARK  142  A    between atoms: _333  and  _334
REMARK  143  A    between atoms: _334  and  _335
REMARK                            x       y       z     vdW  Elec       q    Type
REMARK                         _______ _______ _______ _____ _____    ______ ____
ROOT
ATOM      1  O   HOH     1      -8.997  62.275  39.372  0.00  0.00    +0.000 OA
ENDROOT
TORSDOF 0
REMARK  Name = ../refined-set-2016/1lcp/1lcp_pocket.pdb
REMARK  143 active torsions:
REMARK  status: ('A' for Active; 'I' for Inactive)
REMARK    1  A    between atoms: _1  and  _3
REMARK    2  A    between atoms: _3  and  _4
REMARK    3  A    between atoms: _3  and  _6
REMARK    4  A    between atoms: _6  and  _7
REMARK    5  A    between atoms: _7  and  _8
REMARK    6  A    between atoms: _8  and  _9
REMARK    7  A    between atoms: _9  and  _10
REMARK    8  A    between atoms: _14  and  _16
REMARK    9  A    between atoms: _16  and  _17
REMARK   10  A    between atoms: _16  and  _19
REMARK   11  A    between atoms: _19  and  _20
REMARK   12  A    between atoms: _23  and  _25
REMARK   13  A    between atoms: _25  and  _26
REMARK   14  A    between atoms: _25  and  _28
REMARK   15  A    between atoms: _28  and  _29
REMARK   16  A    between atoms: _35  and  _37
REMARK   17  A    between atoms: _37  and  _38
REMARK   18  A    between atoms: _37  and  _40
REMARK   19  A    between atoms: _40  and  _41
REMARK   20  A    between atoms: _41  and  _43
REMARK   21  A    between atoms: _43  and  ZN_337
REMARK   22  A    between atoms: _44  and  _46
REMARK   23  A    between atoms: _46  and  _47
REMARK   24  A    between atoms: _46  and  _49
REMARK   25  A    between atoms: _49  and  _50
REMARK   26  A    between atoms: _52  and  _54
REMARK   27  A    between atoms: _54  and  _55
REMARK   28  A    between atoms: _57  and  _59
REMARK   29  A    between atoms: _59  and  _60
REMARK   30  A    between atoms: _59  and  _62
REMARK   31  A    between atoms: _62  and  _63
REMARK   32  A    between atoms: _65  and  _67
REMARK   33  A    between atoms: _67  and  _68
REMARK   34  A    between atoms: _67  and  _70
REMARK   35  A    between atoms: _70  and  _71
REMARK   36  A    between atoms: _71  and  _72
REMARK   37  A    between atoms: _72  and  _73
REMARK   38  A    between atoms: _73  and  _74
REMARK   39  A    between atoms: _78  and  _80
REMARK   40  A    between atoms: _80  and  _81
REMARK   41  A    between atoms: _80  and  _83
REMARK   42  A    between atoms: _83  and  _84
REMARK   43  A    between atoms: _89  and  _91
REMARK   44  A    between atoms: _91  and  _92
REMARK   45  A    between atoms: _91  and  _94
REMARK   46  A    between atoms: _94  and  _95
REMARK   47  A    between atoms: _98  and  _100
REMARK   48  A    between atoms: _100  and  _101
REMARK   49  A    between atoms: _100  and  _103
REMARK   50  A    between atoms: _103  and  _104
REMARK   51  A    between atoms: _104  and  _105
REMARK   52  A    between atoms: _107  and  _109
REMARK   53  A    between atoms: _109  and  _110
REMARK   54  A    between atoms: _113  and  _115
REMARK   55  A    between atoms: _115  and  _116
REMARK   56  A    between atoms: _115  and  _118
REMARK   57  A    between atoms: _118  and  _119
REMARK   58  A    between atoms: _119  and  _121
REMARK   59  A    between atoms: _121  and  ZN_338
REMARK   60  A    between atoms: _122  and  _124
REMARK   61  A    between atoms: _124  and  _125
REMARK   62  A    between atoms: _124  and  _127
REMARK   63  A    between atoms: _127  and  _128
REMARK   64  A    between atoms: _128  and  _129
REMARK   65  A    between atoms: _131  and  _133
REMARK   66  A    between atoms: _133  and  _134
REMARK   67  A    between atoms: _136  and  _138
REMARK   68  A    between atoms: _138  and  _139
REMARK   69  A    between atoms: _138  and  _141
REMARK   70  A    between atoms: _141  and  _142
REMARK   71  A    between atoms: _147  and  _149
REMARK   72  A    between atoms: _149  and  _150
REMARK   73  A    between atoms: _149  and  _152
REMARK   74  A    between atoms: _152  and  _153
REMARK   75  A    between atoms: _158  and  _160
REMARK   76  A    between atoms: _160  and  _161
REMARK   77  A    between atoms: _160  and  _163
REMARK   78  A    between atoms: _163  and  _164
REMARK   79  A    between atoms: _167  and  _169
REMARK   80  A    between atoms: _184  and  _185
REMARK   81  A    between atoms: _189  and  _191
REMARK   82  A    between atoms: _191  and  ZN_338
REMARK   83  A    between atoms: _192  and  _194
REMARK   84  A    between atoms: _194  and  _195
REMARK   85  A    between atoms: _197  and  _199
REMARK   86  A    between atoms: _199  and  _200
REMARK   87  A    between atoms: _199  and  _202
REMARK   88  A    between atoms: _202  and  _203
REMARK   89  A    between atoms: _203  and  _204
REMARK   90  A    between atoms: _204  and  _205
REMARK   91  A    between atoms: _214  and  _216
REMARK   92  A    between atoms: _216  and  _217
REMARK   93  A    between atoms: _216  and  _219
REMARK   94  A    between atoms: _219  and  _220
REMARK   95  A    between atoms: _223  and  _225
REMARK   96  A    between atoms: _225  and  _226
REMARK   97  A    between atoms: _229  and  _231
REMARK   98  A    between atoms: _231  and  _232
REMARK   99  A    between atoms: _231  and  _234
REMARK  100  A    between atoms: _234  and  _235
REMARK  101  A    between atoms: _238  and  _240
REMARK  102  A    between atoms: _240  and  _241
REMARK  103  A    between atoms: _240  and  _243
REMARK  104  A    between atoms: _243  and  _244
REMARK  105  A    between atoms: _247  and  _249
REMARK  106  A    between atoms: _249  and  _250
REMARK  107  A    between atoms: _249  and  _252
REMARK  108  A    between atoms: _252  and  _253
REMARK  109  A    between atoms: _256  and  _258
REMARK  110  A    between atoms: _258  and  _259
REMARK  111  A    between atoms: _261  and  _263
REMARK  112  A    between atoms: _263  and  _264
REMARK  113  A    between atoms: _267  and  _269
REMARK  114  A    between atoms: _269  and  _270
REMARK  115  A    between atoms: _269  and  _272
REMARK  116  A    between atoms: _272  and  _273
REMARK  117  A    between atoms: _273  and  _274
REMARK  118  A    between atoms: _276  and  _278
REMARK  119  A    between atoms: _278  and  _279
REMARK  120  A    between atoms: _278  and  _281
REMARK  121  A    between atoms: _281  and  _282
REMARK  122  A    between atoms: _285  and  _287
REMARK  123  A    between atoms: _287  and  _288
REMARK  124  A    between atoms: _291  and  _293
REMARK  125  A    between atoms: _293  and  _294
REMARK  126  A    between atoms: _293  and  _296
REMARK  127  A    between atoms: _296  and  _297
REMARK  128  A    between atoms: _300  and  _302
REMARK  129  A    between atoms: _302  and  _303
REMARK  130  A    between atoms: _302  and  _305
REMARK  131  A    between atoms: _305  and  _306
REMARK  132  A    between atoms: _309  and  _311
REMARK  133  A    between atoms: _311  and  _312
REMARK  134  A    between atoms: _315  and  _317
REMARK  135  A    between atoms: _317  and  _318
REMARK  136  A    between atoms: _320  and  _322
REMARK  137  A    between atoms: _322  and  _323
REMARK  138  A    between atoms: _322  and  _325
REMARK  139  A    between atoms: _328  and  _330
REMARK  140  A    between atoms: _330  and  _331
REMARK  141  A    between atoms: _330  and  _333
REMARK  142  A    between atoms: _333  and  _334
REMARK  143  A    between atoms: _334  and  _335
REMARK                            x       y       z     vdW  Elec       q    Type
REMARK                         _______ _______ _______ _____ _____    ______ ____
ROOT
ATOM      1  O   HOH     1       0.031  67.284  41.506  0.00  0.00    +0.000 OA
ENDROOT
TORSDOF 0
REMARK  Name = ../refined-set-2016/1lcp/1lcp_pocket.pdb
REMARK  143 active torsions:
REMARK  status: ('A' for Active; 'I' for Inactive)
REMARK    1  A    between atoms: _1  and  _3
REMARK    2  A    between atoms: _3  and  _4
REMARK    3  A    between atoms: _3  and  _6
REMARK    4  A    between atoms: _6  and  _7
REMARK    5  A    between atoms: _7  and  _8
REMARK    6  A    between atoms: _8  and  _9
REMARK    7  A    between atoms: _9  and  _10
REMARK    8  A    between atoms: _14  and  _16
REMARK    9  A    between atoms: _16  and  _17
REMARK   10  A    between atoms: _16  and  _19
REMARK   11  A    between atoms: _19  and  _20
REMARK   12  A    between atoms: _23  and  _25
REMARK   13  A    between atoms: _25  and  _26
REMARK   14  A    between atoms: _25  and  _28
REMARK   15  A    between atoms: _28  and  _29
REMARK   16  A    between atoms: _35  and  _37
REMARK   17  A    between atoms: _37  and  _38
REMARK   18  A    between atoms: _37  and  _40
REMARK   19  A    between atoms: _40  and  _41
REMARK   20  A    between atoms: _41  and  _43
REMARK   21  A    between atoms: _43  and  ZN_337
REMARK   22  A    between atoms: _44  and  _46
REMARK   23  A    between atoms: _46  and  _47
REMARK   24  A    between atoms: _46  and  _49
REMARK   25  A    between atoms: _49  and  _50
REMARK   26  A    between atoms: _52  and  _54
REMARK   27  A    between atoms: _54  and  _55
REMARK   28  A    between atoms: _57  and  _59
REMARK   29  A    between atoms: _59  and  _60
REMARK   30  A    between atoms: _59  and  _62
REMARK   31  A    between atoms: _62  and  _63
REMARK   32  A    between atoms: _65  and  _67
REMARK   33  A    between atoms: _67  and  _68
REMARK   34  A    between atoms: _67  and  _70
REMARK   35  A    between atoms: _70  and  _71
REMARK   36  A    between atoms: _71  and  _72
REMARK   37  A    between atoms: _72  and  _73
REMARK   38  A    between atoms: _73  and  _74
REMARK   39  A    between atoms: _78  and  _80
REMARK   40  A    between atoms: _80  and  _81
REMARK   41  A    between atoms: _80  and  _83
REMARK   42  A    between atoms: _83  and  _84
REMARK   43  A    between atoms: _89  and  _91
REMARK   44  A    between atoms: _91  and  _92
REMARK   45  A    between atoms: _91  and  _94
REMARK   46  A    between atoms: _94  and  _95
REMARK   47  A    between atoms: _98  and  _100
REMARK   48  A    between atoms: _100  and  _101
REMARK   49  A    between atoms: _100  and  _103
REMARK   50  A    between atoms: _103  and  _104
REMARK   51  A    between atoms: _104  and  _105
REMARK   52  A    between atoms: _107  and  _109
REMARK   53  A    between atoms: _109  and  _110
REMARK   54  A    between atoms: _113  and  _115
REMARK   55  A    between atoms: _115  and  _116
REMARK   56  A    between atoms: _115  and  _118
REMARK   57  A    between atoms: _118  and  _119
REMARK   58  A    between atoms: _119  and  _121
REMARK   59  A    between atoms: _121  and  ZN_338
REMARK   60  A    between atoms: _122  and  _124
REMARK   61  A    between atoms: _124  and  _125
REMARK   62  A    between atoms: _124  and  _127
REMARK   63  A    between atoms: _127  and  _128
REMARK   64  A    between atoms: _128  and  _129
REMARK   65  A    between atoms: _131  and  _133
REMARK   66  A    between atoms: _133  and  _134
REMARK   67  A    between atoms: _136  and  _138
REMARK   68  A    between atoms: _138  and  _139
REMARK   69  A    between atoms: _138  and  _141
REMARK   70  A    between atoms: _141  and  _142
REMARK   71  A    between atoms: _147  and  _149
REMARK   72  A    between atoms: _149  and  _150
REMARK   73  A    between atoms: _149  and  _152
REMARK   74  A    between atoms: _152  and  _153
REMARK   75  A    between atoms: _158  and  _160
REMARK   76  A    between atoms: _160  and  _161
REMARK   77  A    between atoms: _160  and  _163
REMARK   78  A    between atoms: _163  and  _164
REMARK   79  A    between atoms: _167  and  _169
REMARK   80  A    between atoms: _184  and  _185
REMARK   81  A    between atoms: _189  and  _191
REMARK   82  A    between atoms: _191  and  ZN_338
REMARK   83  A    between atoms: _192  and  _194
REMARK   84  A    between atoms: _194  and  _195
REMARK   85  A    between atoms: _197  and  _199
REMARK   86  A    between atoms: _199  and  _200
REMARK   87  A    between atoms: _199  and  _202
REMARK   88  A    between atoms: _202  and  _203
REMARK   89  A    between atoms: _203  and  _204
REMARK   90  A    between atoms: _204  and  _205
REMARK   91  A    between atoms: _214  and  _216
REMARK   92  A    between atoms: _216  and  _217
REMARK   93  A    between atoms: _216  and  _219
REMARK   94  A    between atoms: _219  and  _220
REMARK   95  A    between atoms: _223  and  _225
REMARK   96  A    between atoms: _225  and  _226
REMARK   97  A    between atoms: _229  and  _231
REMARK   98  A    between atoms: _231  and  _232
REMARK   99  A    between atoms: _231  and  _234
REMARK  100  A    between atoms: _234  and  _235
REMARK  101  A    between atoms: _238  and  _240
REMARK  102  A    between atoms: _240  and  _241
REMARK  103  A    between atoms: _240  and  _243
REMARK  104  A    between atoms: _243  and  _244
REMARK  105  A    between atoms: _247  and  _249
REMARK  106  A    between atoms: _249  and  _250
REMARK  107  A    between atoms: _249  and  _252
REMARK  108  A    between atoms: _252  and  _253
REMARK  109  A    between atoms: _256  and  _258
REMARK  110  A    between atoms: _258  and  _259
REMARK  111  A    between atoms: _261  and  _263
REMARK  112  A    between atoms: _263  and  _264
REMARK  113  A    between atoms: _267  and  _269
REMARK  114  A    between atoms: _269  and  _270
REMARK  115  A    between atoms: _269  and  _272
REMARK  116  A    between atoms: _272  and  _273
REMARK  117  A    between atoms: _273  and  _274
REMARK  118  A    between atoms: _276  and  _278
REMARK  119  A    between atoms: _278  and  _279
REMARK  120  A    between atoms: _278  and  _281
REMARK  121  A    between atoms: _281  and  _282
REMARK  122  A    between atoms: _285  and  _287
REMARK  123  A    between atoms: _287  and  _288
REMARK  124  A    between atoms: _291  and  _293
REMARK  125  A    between atoms: _293  and  _294
REMARK  126  A    between atoms: _293  and  _296
REMARK  127  A    between atoms: _296  and  _297
REMARK  128  A    between atoms: _300  and  _302
REMARK  129  A    between atoms: _302  and  _303
REMARK  130  A    between atoms: _302  and  _305
REMARK  131  A    between atoms: _305  and  _306
REMARK  132  A    between atoms: _309  and  _311
REMARK  133  A    between atoms: _311  and  _312
REMARK  134  A    between atoms: _315  and  _317
REMARK  135  A    between atoms: _317  and  _318
REMARK  136  A    between atoms: _320  and  _322
REMARK  137  A    between atoms: _322  and  _323
REMARK  138  A    between atoms: _322  and  _325
REMARK  139  A    between atoms: _328  and  _330
REMARK  140  A    between atoms: _330  and  _331
REMARK  141  A    between atoms: _330  and  _333
REMARK  142  A    between atoms: _333  and  _334
REMARK  143  A    between atoms: _334  and  _335
REMARK                            x       y       z     vdW  Elec       q    Type
REMARK                         _______ _______ _______ _____ _____    ______ ____
ROOT
ATOM      1  O   HOH     1      -1.187  61.448  40.598  0.00  0.00    +0.000 OA
ENDROOT
TORSDOF 0
REMARK  Name = ../refined-set-2016/1lcp/1lcp_pocket.pdb
REMARK  143 active torsions:
REMARK  status: ('A' for Active; 'I' for Inactive)
REMARK    1  A    between atoms: _1  and  _3
REMARK    2  A    between atoms: _3  and  _4
REMARK    3  A    between atoms: _3  and  _6
REMARK    4  A    between atoms: _6  and  _7
REMARK    5  A    between atoms: _7  and  _8
REMARK    6  A    between atoms: _8  and  _9
REMARK    7  A    between atoms: _9  and  _10
REMARK    8  A    between atoms: _14  and  _16
REMARK    9  A    between atoms: _16  and  _17
REMARK   10  A    between atoms: _16  and  _19
REMARK   11  A    between atoms: _19  and  _20
REMARK   12  A    between atoms: _23  and  _25
REMARK   13  A    between atoms: _25  and  _26
REMARK   14  A    between atoms: _25  and  _28
REMARK   15  A    between atoms: _28  and  _29
REMARK   16  A    between atoms: _35  and  _37
REMARK   17  A    between atoms: _37  and  _38
REMARK   18  A    between atoms: _37  and  _40
REMARK   19  A    between atoms: _40  and  _41
REMARK   20  A    between atoms: _41  and  _43
REMARK   21  A    between atoms: _43  and  ZN_337
REMARK   22  A    between atoms: _44  and  _46
REMARK   23  A    between atoms: _46  and  _47
REMARK   24  A    between atoms: _46  and  _49
REMARK   25  A    between atoms: _49  and  _50
REMARK   26  A    between atoms: _52  and  _54
REMARK   27  A    between atoms: _54  and  _55
REMARK   28  A    between atoms: _57  and  _59
REMARK   29  A    between atoms: _59  and  _60
REMARK   30  A    between atoms: _59  and  _62
REMARK   31  A    between atoms: _62  and  _63
REMARK   32  A    between atoms: _65  and  _67
REMARK   33  A    between atoms: _67  and  _68
REMARK   34  A    between atoms: _67  and  _70
REMARK   35  A    between atoms: _70  and  _71
REMARK   36  A    between atoms: _71  and  _72
REMARK   37  A    between atoms: _72  and  _73
REMARK   38  A    between atoms: _73  and  _74
REMARK   39  A    between atoms: _78  and  _80
REMARK   40  A    between atoms: _80  and  _81
REMARK   41  A    between atoms: _80  and  _83
REMARK   42  A    between atoms: _83  and  _84
REMARK   43  A    between atoms: _89  and  _91
REMARK   44  A    between atoms: _91  and  _92
REMARK   45  A    between atoms: _91  and  _94
REMARK   46  A    between atoms: _94  and  _95
REMARK   47  A    between atoms: _98  and  _100
REMARK   48  A    between atoms: _100  and  _101
REMARK   49  A    between atoms: _100  and  _103
REMARK   50  A    between atoms: _103  and  _104
REMARK   51  A    between atoms: _104  and  _105
REMARK   52  A    between atoms: _107  and  _109
REMARK   53  A    between atoms: _109  and  _110
REMARK   54  A    between atoms: _113  and  _115
REMARK   55  A    between atoms: _115  and  _116
REMARK   56  A    between atoms: _115  and  _118
REMARK   57  A    between atoms: _118  and  _119
REMARK   58  A    between atoms: _119  and  _121
REMARK   59  A    between atoms: _121  and  ZN_338
REMARK   60  A    between atoms: _122  and  _124
REMARK   61  A    between atoms: _124  and  _125
REMARK   62  A    between atoms: _124  and  _127
REMARK   63  A    between atoms: _127  and  _128
REMARK   64  A    between atoms: _128  and  _129
REMARK   65  A    between atoms: _131  and  _133
REMARK   66  A    between atoms: _133  and  _134
REMARK   67  A    between atoms: _136  and  _138
REMARK   68  A    between atoms: _138  and  _139
REMARK   69  A    between atoms: _138  and  _141
REMARK   70  A    between atoms: _141  and  _142
REMARK   71  A    between atoms: _147  and  _149
REMARK   72  A    between atoms: _149  and  _150
REMARK   73  A    between atoms: _149  and  _152
REMARK   74  A    between atoms: _152  and  _153
REMARK   75  A    between atoms: _158  and  _160
REMARK   76  A    between atoms: _160  and  _161
REMARK   77  A    between atoms: _160  and  _163
REMARK   78  A    between atoms: _163  and  _164
REMARK   79  A    between atoms: _167  and  _169
REMARK   80  A    between atoms: _184  and  _185
REMARK   81  A    between atoms: _189  and  _191
REMARK   82  A    between atoms: _191  and  ZN_338
REMARK   83  A    between atoms: _192  and  _194
REMARK   84  A    between atoms: _194  and  _195
REMARK   85  A    between atoms: _197  and  _199
REMARK   86  A    between atoms: _199  and  _200
REMARK   87  A    between atoms: _199  and  _202
REMARK   88  A    between atoms: _202  and  _203
REMARK   89  A    between atoms: _203  and  _204
REMARK   90  A    between atoms: _204  and  _205
REMARK   91  A    between atoms: _214  and  _216
REMARK   92  A    between atoms: _216  and  _217
REMARK   93  A    between atoms: _216  and  _219
REMARK   94  A    between atoms: _219  and  _220
REMARK   95  A    between atoms: _223  and  _225
REMARK   96  A    between atoms: _225  and  _226
REMARK   97  A    between atoms: _229  and  _231
REMARK   98  A    between atoms: _231  and  _232
REMARK   99  A    between atoms: _231  and  _234
REMARK  100  A    between atoms: _234  and  _235
REMARK  101  A    between atoms: _238  and  _240
REMARK  102  A    between atoms: _240  and  _241
REMARK  103  A    between atoms: _240  and  _243
REMARK  104  A    between atoms: _243  and  _244
REMARK  105  A    between atoms: _247  and  _249
REMARK  106  A    between atoms: _249  and  _250
REMARK  107  A    between atoms: _249  and  _252
REMARK  108  A    between atoms: _252  and  _253
REMARK  109  A    between atoms: _256  and  _258
REMARK  110  A    between atoms: _258  and  _259
REMARK  111  A    between atoms: _261  and  _263
REMARK  112  A    between atoms: _263  and  _264
REMARK  113  A    between atoms: _267  and  _269
REMARK  114  A    between atoms: _269  and  _270
REMARK  115  A    between atoms: _269  and  _272
REMARK  116  A    between atoms: _272  and  _273
REMARK  117  A    between atoms: _273  and  _274
REMARK  118  A    between atoms: _276  and  _278
REMARK  119  A    between atoms: _278  and  _279
REMARK  120  A    between atoms: _278  and  _281
REMARK  121  A    between atoms: _281  and  _282
REMARK  122  A    between atoms: _285  and  _287
REMARK  123  A    between atoms: _287  and  _288
REMARK  124  A    between atoms: _291  and  _293
REMARK  125  A    between atoms: _293  and  _294
REMARK  126  A    between atoms: _293  and  _296
REMARK  127  A    between atoms: _296  and  _297
REMARK  128  A    between atoms: _300  and  _302
REMARK  129  A    between atoms: _302  and  _303
REMARK  130  A    between atoms: _302  and  _305
REMARK  131  A    between atoms: _305  and  _306
REMARK  132  A    between atoms: _309  and  _311
REMARK  133  A    between atoms: _311  and  _312
REMARK  134  A    between atoms: _315  and  _317
REMARK  135  A    between atoms: _317  and  _318
REMARK  136  A    between atoms: _320  and  _322
REMARK  137  A    between atoms: _322  and  _323
REMARK  138  A    between atoms: _322  and  _325
REMARK  139  A    between atoms: _328  and  _330
REMARK  140  A    between atoms: _330  and  _331
REMARK  141  A    between atoms: _330  and  _333
REMARK  142  A    between atoms: _333  and  _334
REMARK  143  A    between atoms: _334  and  _335
REMARK                            x       y       z     vdW  Elec       q    Type
REMARK                         _______ _______ _______ _____ _____    ______ ____
ROOT
ATOM      1  O   HOH     1       3.980  56.992  47.055  0.00  0.00    +0.000 OA
ENDROOT
TORSDOF 0
REMARK  Name = ../refined-set-2016/1lcp/1lcp_pocket.pdb
REMARK  143 active torsions:
REMARK  status: ('A' for Active; 'I' for Inactive)
REMARK    1  A    between atoms: _1  and  _3
REMARK    2  A    between atoms: _3  and  _4
REMARK    3  A    between atoms: _3  and  _6
REMARK    4  A    between atoms: _6  and  _7
REMARK    5  A    between atoms: _7  and  _8
REMARK    6  A    between atoms: _8  and  _9
REMARK    7  A    between atoms: _9  and  _10
REMARK    8  A    between atoms: _14  and  _16
REMARK    9  A    between atoms: _16  and  _17
REMARK   10  A    between atoms: _16  and  _19
REMARK   11  A    between atoms: _19  and  _20
REMARK   12  A    between atoms: _23  and  _25
REMARK   13  A    between atoms: _25  and  _26
REMARK   14  A    between atoms: _25  and  _28
REMARK   15  A    between atoms: _28  and  _29
REMARK   16  A    between atoms: _35  and  _37
REMARK   17  A    between atoms: _37  and  _38
REMARK   18  A    between atoms: _37  and  _40
REMARK   19  A    between atoms: _40  and  _41
REMARK   20  A    between atoms: _41  and  _43
REMARK   21  A    between atoms: _43  and  ZN_337
REMARK   22  A    between atoms: _44  and  _46
REMARK   23  A    between atoms: _46  and  _47
REMARK   24  A    between atoms: _46  and  _49
REMARK   25  A    between atoms: _49  and  _50
REMARK   26  A    between atoms: _52  and  _54
REMARK   27  A    between atoms: _54  and  _55
REMARK   28  A    between atoms: _57  and  _59
REMARK   29  A    between atoms: _59  and  _60
REMARK   30  A    between atoms: _59  and  _62
REMARK   31  A    between atoms: _62  and  _63
REMARK   32  A    between atoms: _65  and  _67
REMARK   33  A    between atoms: _67  and  _68
REMARK   34  A    between atoms: _67  and  _70
REMARK   35  A    between atoms: _70  and  _71
REMARK   36  A    between atoms: _71  and  _72
REMARK   37  A    between atoms: _72  and  _73
REMARK   38  A    between atoms: _73  and  _74
REMARK   39  A    between atoms: _78  and  _80
REMARK   40  A    between atoms: _80  and  _81
REMARK   41  A    between atoms: _80  and  _83
REMARK   42  A    between atoms: _83  and  _84
REMARK   43  A    between atoms: _89  and  _91
REMARK   44  A    between atoms: _91  and  _92
REMARK   45  A    between atoms: _91  and  _94
REMARK   46  A    between atoms: _94  and  _95
REMARK   47  A    between atoms: _98  and  _100
REMARK   48  A    between atoms: _100  and  _101
REMARK   49  A    between atoms: _100  and  _103
REMARK   50  A    between atoms: _103  and  _104
REMARK   51  A    between atoms: _104  and  _105
REMARK   52  A    between atoms: _107  and  _109
REMARK   53  A    between atoms: _109  and  _110
REMARK   54  A    between atoms: _113  and  _115
REMARK   55  A    between atoms: _115  and  _116
REMARK   56  A    between atoms: _115  and  _118
REMARK   57  A    between atoms: _118  and  _119
REMARK   58  A    between atoms: _119  and  _121
REMARK   59  A    between atoms: _121  and  ZN_338
REMARK   60  A    between atoms: _122  and  _124
REMARK   61  A    between atoms: _124  and  _125
REMARK   62  A    between atoms: _124  and  _127
REMARK   63  A    between atoms: _127  and  _128
REMARK   64  A    between atoms: _128  and  _129
REMARK   65  A    between atoms: _131  and  _133
REMARK   66  A    between atoms: _133  and  _134
REMARK   67  A    between atoms: _136  and  _138
REMARK   68  A    between atoms: _138  and  _139
REMARK   69  A    between atoms: _138  and  _141
REMARK   70  A    between atoms: _141  and  _142
REMARK   71  A    between atoms: _147  and  _149
REMARK   72  A    between atoms: _149  and  _150
REMARK   73  A    between atoms: _149  and  _152
REMARK   74  A    between atoms: _152  and  _153
REMARK   75  A    between atoms: _158  and  _160
REMARK   76  A    between atoms: _160  and  _161
REMARK   77  A    between atoms: _160  and  _163
REMARK   78  A    between atoms: _163  and  _164
REMARK   79  A    between atoms: _167  and  _169
REMARK   80  A    between atoms: _184  and  _185
REMARK   81  A    between atoms: _189  and  _191
REMARK   82  A    between atoms: _191  and  ZN_338
REMARK   83  A    between atoms: _192  and  _194
REMARK   84  A    between atoms: _194  and  _195
REMARK   85  A    between atoms: _197  and  _199
REMARK   86  A    between atoms: _199  and  _200
REMARK   87  A    between atoms: _199  and  _202
REMARK   88  A    between atoms: _202  and  _203
REMARK   89  A    between atoms: _203  and  _204
REMARK   90  A    between atoms: _204  and  _205
REMARK   91  A    between atoms: _214  and  _216
REMARK   92  A    between atoms: _216  and  _217
REMARK   93  A    between atoms: _216  and  _219
REMARK   94  A    between atoms: _219  and  _220
REMARK   95  A    between atoms: _223  and  _225
REMARK   96  A    between atoms: _225  and  _226
REMARK   97  A    between atoms: _229  and  _231
REMARK   98  A    between atoms: _231  and  _232
REMARK   99  A    between atoms: _231  and  _234
REMARK  100  A    between atoms: _234  and  _235
REMARK  101  A    between atoms: _238  and  _240
REMARK  102  A    between atoms: _240  and  _241
REMARK  103  A    between atoms: _240  and  _243
REMARK  104  A    between atoms: _243  and  _244
REMARK  105  A    between atoms: _247  and  _249
REMARK  106  A    between atoms: _249  and  _250
REMARK  107  A    between atoms: _249  and  _252
REMARK  108  A    between atoms: _252  and  _253
REMARK  109  A    between atoms: _256  and  _258
REMARK  110  A    between atoms: _258  and  _259
REMARK  111  A    between atoms: _261  and  _263
REMARK  112  A    between atoms: _263  and  _264
REMARK  113  A    between atoms: _267  and  _269
REMARK  114  A    between atoms: _269  and  _270
REMARK  115  A    between atoms: _269  and  _272
REMARK  116  A    between atoms: _272  and  _273
REMARK  117  A    between atoms: _273  and  _274
REMARK  118  A    between atoms: _276  and  _278
REMARK  119  A    between atoms: _278  and  _279
REMARK  120  A    between atoms: _278  and  _281
REMARK  121  A    between atoms: _281  and  _282
REMARK  122  A    between atoms: _285  and  _287
REMARK  123  A    between atoms: _287  and  _288
REMARK  124  A    between atoms: _291  and  _293
REMARK  125  A    between atoms: _293  and  _294
REMARK  126  A    between atoms: _293  and  _296
REMARK  127  A    between atoms: _296  and  _297
REMARK  128  A    between atoms: _300  and  _302
REMARK  129  A    between atoms: _302  and  _303
REMARK  130  A    between atoms: _302  and  _305
REMARK  131  A    between atoms: _305  and  _306
REMARK  132  A    between atoms: _309  and  _311
REMARK  133  A    between atoms: _311  and  _312
REMARK  134  A    between atoms: _315  and  _317
REMARK  135  A    between atoms: _317  and  _318
REMARK  136  A    between atoms: _320  and  _322
REMARK  137  A    between atoms: _322  and  _323
REMARK  138  A    between atoms: _322  and  _325
REMARK  139  A    between atoms: _328  and  _330
REMARK  140  A    between atoms: _330  and  _331
REMARK  141  A    between atoms: _330  and  _333
REMARK  142  A    between atoms: _333  and  _334
REMARK  143  A    between atoms: _334  and  _335
REMARK                            x       y       z     vdW  Elec       q    Type
REMARK                         _______ _______ _______ _____ _____    ______ ____
ROOT
ATOM      1  O   HOH     1       1.718  57.097  47.317  0.00  0.00    +0.000 OA
ENDROOT
TORSDOF 0
