REMARK  Name = ../refined-set-2016/1ajx/1ajx_pocket.pdb
REMARK  205 active torsions:
REMARK  status: ('A' for Active; 'I' for Inactive)
REMARK    1  A    between atoms: _1  and  _3
REMARK    2  A    between atoms: _3  and  _4
REMARK    3  A    between atoms: _3  and  _6
REMARK    4  A    between atoms: _6  and  _7
REMARK    5  A    between atoms: _7  and  _8
REMARK    6  A    between atoms: _8  and  _9
REMARK    7  A    between atoms: _18  and  _20
REMARK    8  A    between atoms: _20  and  _21
REMARK    9  A    between atoms: _20  and  _23
REMARK   10  A    between atoms: _23  and  _24
REMARK   11  A    between atoms: _27  and  _29
REMARK   12  A    between atoms: _29  and  _30
REMARK   13  A    between atoms: _29  and  _32
REMARK   14  A    between atoms: _32  and  _33
REMARK   15  A    between atoms: _36  and  _38
REMARK   16  A    between atoms: _38  and  _39
REMARK   17  A    between atoms: _38  and  _41
REMARK   18  A    between atoms: _41  and  _42
REMARK   19  A    between atoms: _45  and  _47
REMARK   20  A    between atoms: _47  and  _48
REMARK   21  A    between atoms: _47  and  _50
REMARK   22  A    between atoms: _50  and  _51
REMARK   23  A    between atoms: _54  and  _56
REMARK   24  A    between atoms: _56  and  _57
REMARK   25  A    between atoms: _59  and  _61
REMARK   26  A    between atoms: _61  and  _62
REMARK   27  A    between atoms: _65  and  _67
REMARK   28  A    between atoms: _67  and  _68
REMARK   29  A    between atoms: _67  and  _70
REMARK   30  A    between atoms: _70  and  _71
REMARK   31  A    between atoms: _74  and  _76
REMARK   32  A    between atoms: _76  and  _77
REMARK   33  A    between atoms: _76  and  _79
REMARK   34  A    between atoms: _79  and  _80
REMARK   35  A    between atoms: _83  and  _85
REMARK   36  A    between atoms: _85  and  _86
REMARK   37  A    between atoms: _85  and  _88
REMARK   38  A    between atoms: _88  and  _89
REMARK   39  A    between atoms: _92  and  _94
REMARK   40  A    between atoms: _94  and  _95
REMARK   41  A    between atoms: _94  and  _97
REMARK   42  A    between atoms: _100  and  _102
REMARK   43  A    between atoms: _102  and  _103
REMARK   44  A    between atoms: _102  and  _105
REMARK   45  A    between atoms: _105  and  _106
REMARK   46  A    between atoms: _109  and  _111
REMARK   47  A    between atoms: _111  and  _112
REMARK   48  A    between atoms: _114  and  _116
REMARK   49  A    between atoms: _116  and  _117
REMARK   50  A    between atoms: _119  and  _121
REMARK   51  A    between atoms: _121  and  _122
REMARK   52  A    between atoms: _121  and  _124
REMARK   53  A    between atoms: _124  and  _125
REMARK   54  A    between atoms: _128  and  _130
REMARK   55  A    between atoms: _130  and  _131
REMARK   56  A    between atoms: _133  and  _135
REMARK   57  A    between atoms: _135  and  _136
REMARK   58  A    between atoms: _138  and  _140
REMARK   59  A    between atoms: _140  and  _141
REMARK   60  A    between atoms: _140  and  _143
REMARK   61  A    between atoms: _143  and  _144
REMARK   62  A    between atoms: _147  and  _149
REMARK   63  A    between atoms: _149  and  _150
REMARK   64  A    between atoms: _149  and  _152
REMARK   65  A    between atoms: _152  and  _153
REMARK   66  A    between atoms: _156  and  _158
REMARK   67  A    between atoms: _158  and  _159
REMARK   68  A    between atoms: _158  and  _161
REMARK   69  A    between atoms: _161  and  _162
REMARK   70  A    between atoms: _166  and  _167
REMARK   71  A    between atoms: _172  and  _174
REMARK   72  A    between atoms: _174  and  _175
REMARK   73  A    between atoms: _174  and  _177
REMARK   74  A    between atoms: _180  and  _182
REMARK   75  A    between atoms: _182  and  _183
REMARK   76  A    between atoms: _182  and  _185
REMARK   77  A    between atoms: _185  and  _186
REMARK   78  A    between atoms: _191  and  _193
REMARK   79  A    between atoms: _193  and  _194
REMARK   80  A    between atoms: _193  and  _196
REMARK   81  A    between atoms: _196  and  _197
REMARK   82  A    between atoms: _200  and  _202
REMARK   83  A    between atoms: _202  and  _203
REMARK   84  A    between atoms: _202  and  _205
REMARK   85  A    between atoms: _205  and  _206
REMARK   86  A    between atoms: _209  and  _211
REMARK   87  A    between atoms: _211  and  _212
REMARK   88  A    between atoms: _214  and  _216
REMARK   89  A    between atoms: _216  and  _217
REMARK   90  A    between atoms: _216  and  _219
REMARK   91  A    between atoms: _219  and  _220
REMARK   92  A    between atoms: _220  and  _221
REMARK   93  A    between atoms: _221  and  _222
REMARK   94  A    between atoms: _231  and  _233
REMARK   95  A    between atoms: _233  and  _234
REMARK   96  A    between atoms: _233  and  _236
REMARK   97  A    between atoms: _236  and  _237
REMARK   98  A    between atoms: _237  and  _238
REMARK   99  A    between atoms: _238  and  _239
REMARK  100  A    between atoms: _248  and  _250
REMARK  101  A    between atoms: _250  and  _251
REMARK  102  A    between atoms: _250  and  _253
REMARK  103  A    between atoms: _253  and  _254
REMARK  104  A    between atoms: _257  and  _259
REMARK  105  A    between atoms: _259  and  _260
REMARK  106  A    between atoms: _259  and  _262
REMARK  107  A    between atoms: _262  and  _263
REMARK  108  A    between atoms: _266  and  _268
REMARK  109  A    between atoms: _268  and  _269
REMARK  110  A    between atoms: _268  and  _271
REMARK  111  A    between atoms: _271  and  _272
REMARK  112  A    between atoms: _275  and  _277
REMARK  113  A    between atoms: _277  and  _278
REMARK  114  A    between atoms: _277  and  _280
REMARK  115  A    between atoms: _280  and  _281
REMARK  116  A    between atoms: _284  and  _286
REMARK  117  A    between atoms: _286  and  _287
REMARK  118  A    between atoms: _286  and  _289
REMARK  119  A    between atoms: _289  and  _290
REMARK  120  A    between atoms: _293  and  _295
REMARK  121  A    between atoms: _295  and  _296
REMARK  122  A    between atoms: _298  and  _300
REMARK  123  A    between atoms: _300  and  _301
REMARK  124  A    between atoms: _304  and  _306
REMARK  125  A    between atoms: _306  and  _307
REMARK  126  A    between atoms: _306  and  _309
REMARK  127  A    between atoms: _309  and  _310
REMARK  128  A    between atoms: _313  and  _315
REMARK  129  A    between atoms: _315  and  _316
REMARK  130  A    between atoms: _315  and  _318
REMARK  131  A    between atoms: _318  and  _319
REMARK  132  A    between atoms: _322  and  _324
REMARK  133  A    between atoms: _324  and  _325
REMARK  134  A    between atoms: _324  and  _327
REMARK  135  A    between atoms: _327  and  _328
REMARK  136  A    between atoms: _331  and  _333
REMARK  137  A    between atoms: _333  and  _334
REMARK  138  A    between atoms: _333  and  _336
REMARK  139  A    between atoms: _339  and  _341
REMARK  140  A    between atoms: _341  and  _342
REMARK  141  A    between atoms: _341  and  _344
REMARK  142  A    between atoms: _344  and  _345
REMARK  143  A    between atoms: _348  and  _350
REMARK  144  A    between atoms: _350  and  _351
REMARK  145  A    between atoms: _350  and  _353
REMARK  146  A    between atoms: _353  and  _354
REMARK  147  A    between atoms: _354  and  _355
REMARK  148  A    between atoms: _355  and  _356
REMARK  149  A    between atoms: _356  and  _357
REMARK  150  A    between atoms: _361  and  _363
REMARK  151  A    between atoms: _363  and  _364
REMARK  152  A    between atoms: _363  and  _366
REMARK  153  A    between atoms: _366  and  _367
REMARK  154  A    between atoms: _370  and  _372
REMARK  155  A    between atoms: _372  and  _373
REMARK  156  A    between atoms: _375  and  _377
REMARK  157  A    between atoms: _377  and  _378
REMARK  158  A    between atoms: _380  and  _382
REMARK  159  A    between atoms: _382  and  _383
REMARK  160  A    between atoms: _382  and  _385
REMARK  161  A    between atoms: _385  and  _386
REMARK  162  A    between atoms: _389  and  _391
REMARK  163  A    between atoms: _391  and  _392
REMARK  164  A    between atoms: _394  and  _396
REMARK  165  A    between atoms: _396  and  _397
REMARK  166  A    between atoms: _399  and  _401
REMARK  167  A    between atoms: _401  and  _402
REMARK  168  A    between atoms: _401  and  _404
REMARK  169  A    between atoms: _404  and  _405
REMARK  170  A    between atoms: _411  and  _413
REMARK  171  A    between atoms: _413  and  _414
REMARK  172  A    between atoms: _413  and  _416
REMARK  173  A    between atoms: _416  and  _417
REMARK  174  A    between atoms: _420  and  _422
REMARK  175  A    between atoms: _422  and  _423
REMARK  176  A    between atoms: _422  and  _425
REMARK  177  A    between atoms: _425  and  _426
REMARK  178  A    between atoms: _429  and  _431
REMARK  179  A    between atoms: _431  and  _432
REMARK  180  A    between atoms: _431  and  _434
REMARK  181  A    between atoms: _434  and  _435
REMARK  182  A    between atoms: _439  and  _440
REMARK  183  A    between atoms: _445  and  _447
REMARK  184  A    between atoms: _447  and  _448
REMARK  185  A    between atoms: _447  and  _450
REMARK  186  A    between atoms: _453  and  _455
REMARK  187  A    between atoms: _455  and  _456
REMARK  188  A    between atoms: _455  and  _458
REMARK  189  A    between atoms: _458  and  _459
REMARK  190  A    between atoms: _464  and  _466
REMARK  191  A    between atoms: _466  and  _467
REMARK  192  A    between atoms: _466  and  _469
REMARK  193  A    between atoms: _469  and  _470
REMARK  194  A    between atoms: _473  and  _475
REMARK  195  A    between atoms: _475  and  _476
REMARK  196  A    between atoms: _475  and  _478
REMARK  197  A    between atoms: _478  and  _479
REMARK  198  A    between atoms: _482  and  _484
REMARK  199  A    between atoms: _484  and  _485
REMARK  200  A    between atoms: _487  and  _489
REMARK  201  A    between atoms: _489  and  _490
REMARK  202  A    between atoms: _489  and  _492
REMARK  203  A    between atoms: _492  and  _493
REMARK  204  A    between atoms: _493  and  _494
REMARK  205  A    between atoms: _494  and  _495
REMARK                            x       y       z     vdW  Elec       q    Type
REMARK                         _______ _______ _______ _____ _____    ______ ____
ROOT
ATOM      1  NE  ARG A   1      23.187  21.003   7.822  0.00  0.00    -0.265 N 
ATOM      2  CZ  ARG A   1      22.171  20.520   8.558  0.00  0.00    +0.342 C 
ATOM      3  NH2 ARG A   1      21.833  21.054   9.738  0.00  0.00    -0.292 N 
ATOM      4 HH21 ARG A   1      21.041  20.655  10.282  0.00  0.00    +0.255 HD
ATOM      5 HH22 ARG A   1      22.362  21.868  10.111  0.00  0.00    +0.255 HD
ATOM      6  NH1 ARG A   1      21.500  19.441   8.178  0.00  0.00    -0.292 N 
ATOM      7 HH11 ARG A   1      20.717  19.083   8.762  0.00  0.00    +0.255 HD
ATOM      8 HH12 ARG A   1      21.757  18.953   7.296  0.00  0.00    +0.255 HD
ATOM      9  HE  ARG A   1      23.391  20.551   6.908  0.00  0.00    +0.259 HD
ENDROOT
BRANCH   1  10
ATOM     10  CD  ARG A   1      24.018  22.125   8.237  0.00  0.00    +0.174 C 
BRANCH  10  11
ATOM     11  CG  ARG A   1      24.503  22.811   7.067  0.00  0.00    +0.045 C 
BRANCH  11  12
ATOM     12  CB  ARG A   1      25.141  24.089   7.509  0.00  0.00    +0.029 C 
BRANCH  12  13
ATOM     13  CA  ARG A   1      25.739  24.885   6.377  0.00  0.00    +0.133 C 
BRANCH  13  14
ATOM     14  N   ARG A   1      26.988  24.272   5.921  0.00  0.00    -0.239 NA
ATOM     15  H   ARG A   1      27.335  23.421   6.409  0.00  0.00    +0.142 HD
ENDBRANCH  13  14
BRANCH  13  16
ATOM     16  C   ARG A   1      26.054  26.269   6.884  0.00  0.00    +0.224 C 
ATOM     17  O   ARG A   1      27.030  26.429   7.617  0.00  0.00    -0.287 OA
ENDBRANCH  13  16
ENDBRANCH  12  13
ENDBRANCH  11  12
ENDBRANCH  10  11
ENDBRANCH   1  10
TORSDOF 6
REMARK  Name = ../refined-set-2016/1ajx/1ajx_pocket.pdb
REMARK  205 active torsions:
REMARK  status: ('A' for Active; 'I' for Inactive)
REMARK    1  A    between atoms: _1  and  _3
REMARK    2  A    between atoms: _3  and  _4
REMARK    3  A    between atoms: _3  and  _6
REMARK    4  A    between atoms: _6  and  _7
REMARK    5  A    between atoms: _7  and  _8
REMARK    6  A    between atoms: _8  and  _9
REMARK    7  A    between atoms: _18  and  _20
REMARK    8  A    between atoms: _20  and  _21
REMARK    9  A    between atoms: _20  and  _23
REMARK   10  A    between atoms: _23  and  _24
REMARK   11  A    between atoms: _27  and  _29
REMARK   12  A    between atoms: _29  and  _30
REMARK   13  A    between atoms: _29  and  _32
REMARK   14  A    between atoms: _32  and  _33
REMARK   15  A    between atoms: _36  and  _38
REMARK   16  A    between atoms: _38  and  _39
REMARK   17  A    between atoms: _38  and  _41
REMARK   18  A    between atoms: _41  and  _42
REMARK   19  A    between atoms: _45  and  _47
REMARK   20  A    between atoms: _47  and  _48
REMARK   21  A    between atoms: _47  and  _50
REMARK   22  A    between atoms: _50  and  _51
REMARK   23  A    between atoms: _54  and  _56
REMARK   24  A    between atoms: _56  and  _57
REMARK   25  A    between atoms: _59  and  _61
REMARK   26  A    between atoms: _61  and  _62
REMARK   27  A    between atoms: _65  and  _67
REMARK   28  A    between atoms: _67  and  _68
REMARK   29  A    between atoms: _67  and  _70
REMARK   30  A    between atoms: _70  and  _71
REMARK   31  A    between atoms: _74  and  _76
REMARK   32  A    between atoms: _76  and  _77
REMARK   33  A    between atoms: _76  and  _79
REMARK   34  A    between atoms: _79  and  _80
REMARK   35  A    between atoms: _83  and  _85
REMARK   36  A    between atoms: _85  and  _86
REMARK   37  A    between atoms: _85  and  _88
REMARK   38  A    between atoms: _88  and  _89
REMARK   39  A    between atoms: _92  and  _94
REMARK   40  A    between atoms: _94  and  _95
REMARK   41  A    between atoms: _94  and  _97
REMARK   42  A    between atoms: _100  and  _102
REMARK   43  A    between atoms: _102  and  _103
REMARK   44  A    between atoms: _102  and  _105
REMARK   45  A    between atoms: _105  and  _106
REMARK   46  A    between atoms: _109  and  _111
REMARK   47  A    between atoms: _111  and  _112
REMARK   48  A    between atoms: _114  and  _116
REMARK   49  A    between atoms: _116  and  _117
REMARK   50  A    between atoms: _119  and  _121
REMARK   51  A    between atoms: _121  and  _122
REMARK   52  A    between atoms: _121  and  _124
REMARK   53  A    between atoms: _124  and  _125
REMARK   54  A    between atoms: _128  and  _130
REMARK   55  A    between atoms: _130  and  _131
REMARK   56  A    between atoms: _133  and  _135
REMARK   57  A    between atoms: _135  and  _136
REMARK   58  A    between atoms: _138  and  _140
REMARK   59  A    between atoms: _140  and  _141
REMARK   60  A    between atoms: _140  and  _143
REMARK   61  A    between atoms: _143  and  _144
REMARK   62  A    between atoms: _147  and  _149
REMARK   63  A    between atoms: _149  and  _150
REMARK   64  A    between atoms: _149  and  _152
REMARK   65  A    between atoms: _152  and  _153
REMARK   66  A    between atoms: _156  and  _158
REMARK   67  A    between atoms: _158  and  _159
REMARK   68  A    between atoms: _158  and  _161
REMARK   69  A    between atoms: _161  and  _162
REMARK   70  A    between atoms: _166  and  _167
REMARK   71  A    between atoms: _172  and  _174
REMARK   72  A    between atoms: _174  and  _175
REMARK   73  A    between atoms: _174  and  _177
REMARK   74  A    between atoms: _180  and  _182
REMARK   75  A    between atoms: _182  and  _183
REMARK   76  A    between atoms: _182  and  _185
REMARK   77  A    between atoms: _185  and  _186
REMARK   78  A    between atoms: _191  and  _193
REMARK   79  A    between atoms: _193  and  _194
REMARK   80  A    between atoms: _193  and  _196
REMARK   81  A    between atoms: _196  and  _197
REMARK   82  A    between atoms: _200  and  _202
REMARK   83  A    between atoms: _202  and  _203
REMARK   84  A    between atoms: _202  and  _205
REMARK   85  A    between atoms: _205  and  _206
REMARK   86  A    between atoms: _209  and  _211
REMARK   87  A    between atoms: _211  and  _212
REMARK   88  A    between atoms: _214  and  _216
REMARK   89  A    between atoms: _216  and  _217
REMARK   90  A    between atoms: _216  and  _219
REMARK   91  A    between atoms: _219  and  _220
REMARK   92  A    between atoms: _220  and  _221
REMARK   93  A    between atoms: _221  and  _222
REMARK   94  A    between atoms: _231  and  _233
REMARK   95  A    between atoms: _233  and  _234
REMARK   96  A    between atoms: _233  and  _236
REMARK   97  A    between atoms: _236  and  _237
REMARK   98  A    between atoms: _237  and  _238
REMARK   99  A    between atoms: _238  and  _239
REMARK  100  A    between atoms: _248  and  _250
REMARK  101  A    between atoms: _250  and  _251
REMARK  102  A    between atoms: _250  and  _253
REMARK  103  A    between atoms: _253  and  _254
REMARK  104  A    between atoms: _257  and  _259
REMARK  105  A    between atoms: _259  and  _260
REMARK  106  A    between atoms: _259  and  _262
REMARK  107  A    between atoms: _262  and  _263
REMARK  108  A    between atoms: _266  and  _268
REMARK  109  A    between atoms: _268  and  _269
REMARK  110  A    between atoms: _268  and  _271
REMARK  111  A    between atoms: _271  and  _272
REMARK  112  A    between atoms: _275  and  _277
REMARK  113  A    between atoms: _277  and  _278
REMARK  114  A    between atoms: _277  and  _280
REMARK  115  A    between atoms: _280  and  _281
REMARK  116  A    between atoms: _284  and  _286
REMARK  117  A    between atoms: _286  and  _287
REMARK  118  A    between atoms: _286  and  _289
REMARK  119  A    between atoms: _289  and  _290
REMARK  120  A    between atoms: _293  and  _295
REMARK  121  A    between atoms: _295  and  _296
REMARK  122  A    between atoms: _298  and  _300
REMARK  123  A    between atoms: _300  and  _301
REMARK  124  A    between atoms: _304  and  _306
REMARK  125  A    between atoms: _306  and  _307
REMARK  126  A    between atoms: _306  and  _309
REMARK  127  A    between atoms: _309  and  _310
REMARK  128  A    between atoms: _313  and  _315
REMARK  129  A    between atoms: _315  and  _316
REMARK  130  A    between atoms: _315  and  _318
REMARK  131  A    between atoms: _318  and  _319
REMARK  132  A    between atoms: _322  and  _324
REMARK  133  A    between atoms: _324  and  _325
REMARK  134  A    between atoms: _324  and  _327
REMARK  135  A    between atoms: _327  and  _328
REMARK  136  A    between atoms: _331  and  _333
REMARK  137  A    between atoms: _333  and  _334
REMARK  138  A    between atoms: _333  and  _336
REMARK  139  A    between atoms: _339  and  _341
REMARK  140  A    between atoms: _341  and  _342
REMARK  141  A    between atoms: _341  and  _344
REMARK  142  A    between atoms: _344  and  _345
REMARK  143  A    between atoms: _348  and  _350
REMARK  144  A    between atoms: _350  and  _351
REMARK  145  A    between atoms: _350  and  _353
REMARK  146  A    between atoms: _353  and  _354
REMARK  147  A    between atoms: _354  and  _355
REMARK  148  A    between atoms: _355  and  _356
REMARK  149  A    between atoms: _356  and  _357
REMARK  150  A    between atoms: _361  and  _363
REMARK  151  A    between atoms: _363  and  _364
REMARK  152  A    between atoms: _363  and  _366
REMARK  153  A    between atoms: _366  and  _367
REMARK  154  A    between atoms: _370  and  _372
REMARK  155  A    between atoms: _372  and  _373
REMARK  156  A    between atoms: _375  and  _377
REMARK  157  A    between atoms: _377  and  _378
REMARK  158  A    between atoms: _380  and  _382
REMARK  159  A    between atoms: _382  and  _383
REMARK  160  A    between atoms: _382  and  _385
REMARK  161  A    between atoms: _385  and  _386
REMARK  162  A    between atoms: _389  and  _391
REMARK  163  A    between atoms: _391  and  _392
REMARK  164  A    between atoms: _394  and  _396
REMARK  165  A    between atoms: _396  and  _397
REMARK  166  A    between atoms: _399  and  _401
REMARK  167  A    between atoms: _401  and  _402
REMARK  168  A    between atoms: _401  and  _404
REMARK  169  A    between atoms: _404  and  _405
REMARK  170  A    between atoms: _411  and  _413
REMARK  171  A    between atoms: _413  and  _414
REMARK  172  A    between atoms: _413  and  _416
REMARK  173  A    between atoms: _416  and  _417
REMARK  174  A    between atoms: _420  and  _422
REMARK  175  A    between atoms: _422  and  _423
REMARK  176  A    between atoms: _422  and  _425
REMARK  177  A    between atoms: _425  and  _426
REMARK  178  A    between atoms: _429  and  _431
REMARK  179  A    between atoms: _431  and  _432
REMARK  180  A    between atoms: _431  and  _434
REMARK  181  A    between atoms: _434  and  _435
REMARK  182  A    between atoms: _439  and  _440
REMARK  183  A    between atoms: _445  and  _447
REMARK  184  A    between atoms: _447  and  _448
REMARK  185  A    between atoms: _447  and  _450
REMARK  186  A    between atoms: _453  and  _455
REMARK  187  A    between atoms: _455  and  _456
REMARK  188  A    between atoms: _455  and  _458
REMARK  189  A    between atoms: _458  and  _459
REMARK  190  A    between atoms: _464  and  _466
REMARK  191  A    between atoms: _466  and  _467
REMARK  192  A    between atoms: _466  and  _469
REMARK  193  A    between atoms: _469  and  _470
REMARK  194  A    between atoms: _473  and  _475
REMARK  195  A    between atoms: _475  and  _476
REMARK  196  A    between atoms: _475  and  _478
REMARK  197  A    between atoms: _478  and  _479
REMARK  198  A    between atoms: _482  and  _484
REMARK  199  A    between atoms: _484  and  _485
REMARK  200  A    between atoms: _487  and  _489
REMARK  201  A    between atoms: _489  and  _490
REMARK  202  A    between atoms: _489  and  _492
REMARK  203  A    between atoms: _492  and  _493
REMARK  204  A    between atoms: _493  and  _494
REMARK  205  A    between atoms: _494  and  _495
REMARK                            x       y       z     vdW  Elec       q    Type
REMARK                         _______ _______ _______ _____ _____    ______ ____
ROOT
ATOM      1  C   GLY A   5      12.633  28.710   3.077  0.00  0.00    +0.243 C 
ATOM      2  N   ALA A   6      13.003  29.169   4.271  0.00  0.00    -0.297 N 
ATOM      3  H   ALA A   6      13.994  29.440   4.431  0.00  0.00    +0.150 HD
ATOM      4  O   GLY A   5      11.465  28.371   2.850  0.00  0.00    -0.273 OA
ENDROOT
BRANCH   2   5
ATOM      5  CA  ALA A   6      12.025  29.300   5.374  0.00  0.00    +0.149 C 
ATOM      6  CB  ALA A   6      12.750  29.131   6.700  0.00  0.00    +0.031 C 
BRANCH   5   7
ATOM      7  C   ALA A   6      11.259  30.653   5.403  0.00  0.00    +0.241 C 
ATOM      8  O   ALA A   6      11.907  31.678   5.511  0.00  0.00    -0.273 OA
ATOM      9  N   ASP A   7       9.922  30.679   5.365  0.00  0.00    -0.297 N 
ATOM     10  H   ASP A   7       9.361  29.810   5.255  0.00  0.00    +0.150 HD
BRANCH   9  11
ATOM     11  CA  ASP A   7       9.299  31.976   5.484  0.00  0.00    +0.160 C 
BRANCH  11  12
ATOM     12  C   ASP A   7       9.510  32.606   6.885  0.00  0.00    +0.241 C 
ATOM     13  N   ASP A   8       9.475  31.788   7.947  0.00  0.00    -0.297 N 
ATOM     14  H   ASP A   8       9.375  30.768   7.771  0.00  0.00    +0.150 HD
ATOM     15  O   ASP A   7       9.701  33.804   6.976  0.00  0.00    -0.273 OA
BRANCH  13  16
ATOM     16  CA  ASP A   8       9.570  32.242   9.360  0.00  0.00    +0.160 C 
BRANCH  16  17
ATOM     17  C   ASP A   8      10.771  31.774  10.105  0.00  0.00    +0.241 C 
ATOM     18  N   THR A   9      11.042  32.410  11.217  0.00  0.00    -0.295 N 
ATOM     19  H   THR A   9      10.433  33.202  11.507  0.00  0.00    +0.150 HD
ATOM     20  O   ASP A   8      11.536  30.969   9.613  0.00  0.00    -0.273 OA
BRANCH  18  21
ATOM     21  CA  THR A   9      12.156  32.046  12.048  0.00  0.00    +0.176 C 
BRANCH  21  22
ATOM     22  C   THR A   9      11.596  31.104  13.114  0.00  0.00    +0.243 C 
ATOM     23  O   THR A   9      10.554  31.386  13.741  0.00  0.00    -0.273 OA
ATOM     24  N   VAL A  10      12.298  30.004  13.315  0.00  0.00    -0.298 N 
ATOM     25  H   VAL A  10      13.184  29.835  12.797  0.00  0.00    +0.150 HD
BRANCH  24  26
ATOM     26  CA  VAL A  10      11.795  29.021  14.293  0.00  0.00    +0.137 C 
BRANCH  26  27
ATOM     27  CB  VAL A  10      10.910  27.863  13.607  0.00  0.00    +0.026 C 
ATOM     28  CG2 VAL A  10      10.591  26.714  14.559  0.00  0.00    +0.002 C 
ATOM     29  CG1 VAL A  10      11.455  27.418  12.302  0.00  0.00    +0.002 C 
ENDBRANCH  26  27
BRANCH  26  30
ATOM     30  C   VAL A  10      12.940  28.536  15.158  0.00  0.00    +0.227 C 
ATOM     31  O   VAL A  10      13.967  28.144  14.635  0.00  0.00    -0.286 OA
ENDBRANCH  26  30
ENDBRANCH  24  26
ENDBRANCH  21  22
BRANCH  21  32
ATOM     32  CB  THR A   9      12.637  33.292  12.687  0.00  0.00    +0.137 C 
ATOM     33  CG2 THR A   9      13.630  33.019  13.876  0.00  0.00    +0.034 C 
BRANCH  32  34
ATOM     34  OG1 THR A   9      13.228  34.060  11.624  0.00  0.00    -0.382 OA
ATOM     35  HG1 THR A   9      12.544  34.246  10.933  0.00  0.00    +0.210 HD
ENDBRANCH  32  34
ENDBRANCH  21  32
ENDBRANCH  18  21
ENDBRANCH  16  17
BRANCH  16  36
ATOM     36  CB  ASP A   8       8.422  31.721  10.134  0.00  0.00    +0.143 C 
BRANCH  36  37
ATOM     37  CG  ASP A   8       7.113  31.914   9.407  0.00  0.00    +0.367 C 
ATOM     38  OD2 ASP A   8       6.605  33.064   9.307  0.00  0.00    -0.246 OA
ATOM     39  OD1 ASP A   8       6.581  30.886   8.918  0.00  0.00    -0.246 OA
ENDBRANCH  36  37
ENDBRANCH  16  36
ENDBRANCH  13  16
ENDBRANCH  11  12
BRANCH  11  40
ATOM     40  CB  ASP A   7       7.828  31.892   5.278  0.00  0.00    +0.143 C 
BRANCH  40  41
ATOM     41  CG  ASP A   7       7.460  31.423   3.906  0.00  0.00    +0.367 C 
ATOM     42  OD2 ASP A   7       6.279  31.048   3.793  0.00  0.00    -0.246 OA
ATOM     43  OD1 ASP A   7       8.217  31.538   2.927  0.00  0.00    -0.246 OA
ENDBRANCH  40  41
ENDBRANCH  11  40
ENDBRANCH   9  11
ENDBRANCH   5   7
ENDBRANCH   2   5
BRANCH   1  44
ATOM     44  CA  GLY A   5      13.723  28.569   2.011  0.00  0.00    +0.176 C 
BRANCH  44  46
ATOM     45  C   THR A   4      14.992  30.572   2.113  0.00  0.00    +0.243 C 
ATOM     46  N   GLY A   5      14.910  29.278   2.376  0.00  0.00    -0.295 N 
ATOM     47  H   GLY A   5      15.698  28.783   2.842  0.00  0.00    +0.150 HD
ATOM     48  O   THR A   4      14.055  31.176   1.562  0.00  0.00    -0.273 OA
BRANCH  45  49
ATOM     49  CA  THR A   4      16.267  31.322   2.551  0.00  0.00    +0.176 C 
BRANCH  49  52
ATOM     50  C   ASP A   3      16.652  30.484   4.781  0.00  0.00    +0.241 C 
ATOM     51  O   ASP A   3      15.559  30.845   5.163  0.00  0.00    -0.273 OA
ATOM     52  N   THR A   4      17.041  30.599   3.527  0.00  0.00    -0.295 N 
ATOM     53  H   THR A   4      17.934  30.154   3.233  0.00  0.00    +0.150 HD
BRANCH  50  54
ATOM     54  CA  ASP A   3      17.571  29.703   5.727  0.00  0.00    +0.160 C 
BRANCH  54  56
ATOM     55  C   LEU A   2      19.713  30.443   6.585  0.00  0.00    +0.241 C 
ATOM     56  N   ASP A   3      18.405  30.540   6.574  0.00  0.00    -0.297 N 
ATOM     57  H   ASP A   3      17.949  31.240   7.193  0.00  0.00    +0.150 HD
ATOM     58  O   LEU A   2      20.327  29.748   5.795  0.00  0.00    -0.273 OA
BRANCH  55  59
ATOM     59  CA  LEU A   2      20.452  31.263   7.649  0.00  0.00    +0.149 C 
BRANCH  59  62
ATOM     60  C   LEU A   1      20.347  29.552   9.497  0.00  0.00    +0.238 C 
ATOM     61  O   LEU A   1      19.170  29.765   9.724  0.00  0.00    -0.274 OA
ATOM     62  N   LEU A   2      21.037  30.222   8.562  0.00  0.00    -0.297 N 
ATOM     63  H   LEU A   2      22.049  30.006   8.462  0.00  0.00    +0.150 HD
BRANCH  60  64
ATOM     64  CA  LEU A   1      21.053  28.407  10.284  0.00  0.00    +0.145 C 
BRANCH  64  65
ATOM     65  N   LEU A   1      20.847  28.554  11.700  0.00  0.00    -0.238 NA
ATOM     66  H   LEU A   1      19.966  28.189  12.114  0.00  0.00    +0.142 HD
ENDBRANCH  64  65
BRANCH  64  67
ATOM     67  CB  LEU A   1      20.414  27.077   9.913  0.00  0.00    +0.026 C 
BRANCH  67  68
ATOM     68  CG  LEU A   1      20.501  26.495   8.519  0.00  0.00    +0.002 C 
ATOM     69  CD2 LEU A   1      19.604  25.150   8.450  0.00  0.00    +0.000 C 
ATOM     70  CD1 LEU A   1      21.931  26.229   8.234  0.00  0.00    +0.000 C 
ENDBRANCH  67  68
ENDBRANCH  64  67
ENDBRANCH  60  64
ENDBRANCH  59  62
BRANCH  59  71
ATOM     71  CB  LEU A   2      21.538  32.100   6.933  0.00  0.00    +0.029 C 
BRANCH  71  72
ATOM     72  CG  LEU A   2      22.439  32.708   8.008  0.00  0.00    +0.002 C 
ATOM     73  CD2 LEU A   2      21.607  33.404   9.088  0.00  0.00    +0.000 C 
ATOM     74  CD1 LEU A   2      23.463  33.593   7.339  0.00  0.00    +0.000 C 
ENDBRANCH  71  72
ENDBRANCH  59  71
ENDBRANCH  55  59
ENDBRANCH  54  56
BRANCH  54  75
ATOM     75  CB  ASP A   3      16.747  28.788   6.662  0.00  0.00    +0.143 C 
BRANCH  75  76
ATOM     76  CG  ASP A   3      16.067  27.628   5.931  0.00  0.00    +0.367 C 
ATOM     77  OD2 ASP A   3      15.737  26.646   6.630  0.00  0.00    -0.246 OA
ATOM     78  OD1 ASP A   3      15.857  27.688   4.691  0.00  0.00    -0.246 OA
ENDBRANCH  75  76
ENDBRANCH  54  75
ENDBRANCH  50  54
ENDBRANCH  49  52
BRANCH  49  79
ATOM     79  CB  THR A   4      17.106  31.635   1.293  0.00  0.00    +0.137 C 
ATOM     80  CG2 THR A   4      18.346  32.448   1.624  0.00  0.00    +0.034 C 
BRANCH  79  81
ATOM     81  OG1 THR A   4      17.523  30.420   0.662  0.00  0.00    -0.382 OA
ATOM     82  HG1 THR A   4      16.726  29.896   0.398  0.00  0.00    +0.210 HD
ENDBRANCH  79  81
ENDBRANCH  49  79
ENDBRANCH  45  49
ENDBRANCH  44  46
ENDBRANCH   1  44
TORSDOF 35
REMARK  Name = ../refined-set-2016/1ajx/1ajx_pocket.pdb
REMARK  205 active torsions:
REMARK  status: ('A' for Active; 'I' for Inactive)
REMARK    1  A    between atoms: _1  and  _3
REMARK    2  A    between atoms: _3  and  _4
REMARK    3  A    between atoms: _3  and  _6
REMARK    4  A    between atoms: _6  and  _7
REMARK    5  A    between atoms: _7  and  _8
REMARK    6  A    between atoms: _8  and  _9
REMARK    7  A    between atoms: _18  and  _20
REMARK    8  A    between atoms: _20  and  _21
REMARK    9  A    between atoms: _20  and  _23
REMARK   10  A    between atoms: _23  and  _24
REMARK   11  A    between atoms: _27  and  _29
REMARK   12  A    between atoms: _29  and  _30
REMARK   13  A    between atoms: _29  and  _32
REMARK   14  A    between atoms: _32  and  _33
REMARK   15  A    between atoms: _36  and  _38
REMARK   16  A    between atoms: _38  and  _39
REMARK   17  A    between atoms: _38  and  _41
REMARK   18  A    between atoms: _41  and  _42
REMARK   19  A    between atoms: _45  and  _47
REMARK   20  A    between atoms: _47  and  _48
REMARK   21  A    between atoms: _47  and  _50
REMARK   22  A    between atoms: _50  and  _51
REMARK   23  A    between atoms: _54  and  _56
REMARK   24  A    between atoms: _56  and  _57
REMARK   25  A    between atoms: _59  and  _61
REMARK   26  A    between atoms: _61  and  _62
REMARK   27  A    between atoms: _65  and  _67
REMARK   28  A    between atoms: _67  and  _68
REMARK   29  A    between atoms: _67  and  _70
REMARK   30  A    between atoms: _70  and  _71
REMARK   31  A    between atoms: _74  and  _76
REMARK   32  A    between atoms: _76  and  _77
REMARK   33  A    between atoms: _76  and  _79
REMARK   34  A    between atoms: _79  and  _80
REMARK   35  A    between atoms: _83  and  _85
REMARK   36  A    between atoms: _85  and  _86
REMARK   37  A    between atoms: _85  and  _88
REMARK   38  A    between atoms: _88  and  _89
REMARK   39  A    between atoms: _92  and  _94
REMARK   40  A    between atoms: _94  and  _95
REMARK   41  A    between atoms: _94  and  _97
REMARK   42  A    between atoms: _100  and  _102
REMARK   43  A    between atoms: _102  and  _103
REMARK   44  A    between atoms: _102  and  _105
REMARK   45  A    between atoms: _105  and  _106
REMARK   46  A    between atoms: _109  and  _111
REMARK   47  A    between atoms: _111  and  _112
REMARK   48  A    between atoms: _114  and  _116
REMARK   49  A    between atoms: _116  and  _117
REMARK   50  A    between atoms: _119  and  _121
REMARK   51  A    between atoms: _121  and  _122
REMARK   52  A    between atoms: _121  and  _124
REMARK   53  A    between atoms: _124  and  _125
REMARK   54  A    between atoms: _128  and  _130
REMARK   55  A    between atoms: _130  and  _131
REMARK   56  A    between atoms: _133  and  _135
REMARK   57  A    between atoms: _135  and  _136
REMARK   58  A    between atoms: _138  and  _140
REMARK   59  A    between atoms: _140  and  _141
REMARK   60  A    between atoms: _140  and  _143
REMARK   61  A    between atoms: _143  and  _144
REMARK   62  A    between atoms: _147  and  _149
REMARK   63  A    between atoms: _149  and  _150
REMARK   64  A    between atoms: _149  and  _152
REMARK   65  A    between atoms: _152  and  _153
REMARK   66  A    between atoms: _156  and  _158
REMARK   67  A    between atoms: _158  and  _159
REMARK   68  A    between atoms: _158  and  _161
REMARK   69  A    between atoms: _161  and  _162
REMARK   70  A    between atoms: _166  and  _167
REMARK   71  A    between atoms: _172  and  _174
REMARK   72  A    between atoms: _174  and  _175
REMARK   73  A    between atoms: _174  and  _177
REMARK   74  A    between atoms: _180  and  _182
REMARK   75  A    between atoms: _182  and  _183
REMARK   76  A    between atoms: _182  and  _185
REMARK   77  A    between atoms: _185  and  _186
REMARK   78  A    between atoms: _191  and  _193
REMARK   79  A    between atoms: _193  and  _194
REMARK   80  A    between atoms: _193  and  _196
REMARK   81  A    between atoms: _196  and  _197
REMARK   82  A    between atoms: _200  and  _202
REMARK   83  A    between atoms: _202  and  _203
REMARK   84  A    between atoms: _202  and  _205
REMARK   85  A    between atoms: _205  and  _206
REMARK   86  A    between atoms: _209  and  _211
REMARK   87  A    between atoms: _211  and  _212
REMARK   88  A    between atoms: _214  and  _216
REMARK   89  A    between atoms: _216  and  _217
REMARK   90  A    between atoms: _216  and  _219
REMARK   91  A    between atoms: _219  and  _220
REMARK   92  A    between atoms: _220  and  _221
REMARK   93  A    between atoms: _221  and  _222
REMARK   94  A    between atoms: _231  and  _233
REMARK   95  A    between atoms: _233  and  _234
REMARK   96  A    between atoms: _233  and  _236
REMARK   97  A    between atoms: _236  and  _237
REMARK   98  A    between atoms: _237  and  _238
REMARK   99  A    between atoms: _238  and  _239
REMARK  100  A    between atoms: _248  and  _250
REMARK  101  A    between atoms: _250  and  _251
REMARK  102  A    between atoms: _250  and  _253
REMARK  103  A    between atoms: _253  and  _254
REMARK  104  A    between atoms: _257  and  _259
REMARK  105  A    between atoms: _259  and  _260
REMARK  106  A    between atoms: _259  and  _262
REMARK  107  A    between atoms: _262  and  _263
REMARK  108  A    between atoms: _266  and  _268
REMARK  109  A    between atoms: _268  and  _269
REMARK  110  A    between atoms: _268  and  _271
REMARK  111  A    between atoms: _271  and  _272
REMARK  112  A    between atoms: _275  and  _277
REMARK  113  A    between atoms: _277  and  _278
REMARK  114  A    between atoms: _277  and  _280
REMARK  115  A    between atoms: _280  and  _281
REMARK  116  A    between atoms: _284  and  _286
REMARK  117  A    between atoms: _286  and  _287
REMARK  118  A    between atoms: _286  and  _289
REMARK  119  A    between atoms: _289  and  _290
REMARK  120  A    between atoms: _293  and  _295
REMARK  121  A    between atoms: _295  and  _296
REMARK  122  A    between atoms: _298  and  _300
REMARK  123  A    between atoms: _300  and  _301
REMARK  124  A    between atoms: _304  and  _306
REMARK  125  A    between atoms: _306  and  _307
REMARK  126  A    between atoms: _306  and  _309
REMARK  127  A    between atoms: _309  and  _310
REMARK  128  A    between atoms: _313  and  _315
REMARK  129  A    between atoms: _315  and  _316
REMARK  130  A    between atoms: _315  and  _318
REMARK  131  A    between atoms: _318  and  _319
REMARK  132  A    between atoms: _322  and  _324
REMARK  133  A    between atoms: _324  and  _325
REMARK  134  A    between atoms: _324  and  _327
REMARK  135  A    between atoms: _327  and  _328
REMARK  136  A    between atoms: _331  and  _333
REMARK  137  A    between atoms: _333  and  _334
REMARK  138  A    between atoms: _333  and  _336
REMARK  139  A    between atoms: _339  and  _341
REMARK  140  A    between atoms: _341  and  _342
REMARK  141  A    between atoms: _341  and  _344
REMARK  142  A    between atoms: _344  and  _345
REMARK  143  A    between atoms: _348  and  _350
REMARK  144  A    between atoms: _350  and  _351
REMARK  145  A    between atoms: _350  and  _353
REMARK  146  A    between atoms: _353  and  _354
REMARK  147  A    between atoms: _354  and  _355
REMARK  148  A    between atoms: _355  and  _356
REMARK  149  A    between atoms: _356  and  _357
REMARK  150  A    between atoms: _361  and  _363
REMARK  151  A    between atoms: _363  and  _364
REMARK  152  A    between atoms: _363  and  _366
REMARK  153  A    between atoms: _366  and  _367
REMARK  154  A    between atoms: _370  and  _372
REMARK  155  A    between atoms: _372  and  _373
REMARK  156  A    between atoms: _375  and  _377
REMARK  157  A    between atoms: _377  and  _378
REMARK  158  A    between atoms: _380  and  _382
REMARK  159  A    between atoms: _382  and  _383
REMARK  160  A    between atoms: _382  and  _385
REMARK  161  A    between atoms: _385  and  _386
REMARK  162  A    between atoms: _389  and  _391
REMARK  163  A    between atoms: _391  and  _392
REMARK  164  A    between atoms: _394  and  _396
REMARK  165  A    between atoms: _396  and  _397
REMARK  166  A    between atoms: _399  and  _401
REMARK  167  A    between atoms: _401  and  _402
REMARK  168  A    between atoms: _401  and  _404
REMARK  169  A    between atoms: _404  and  _405
REMARK  170  A    between atoms: _411  and  _413
REMARK  171  A    between atoms: _413  and  _414
REMARK  172  A    between atoms: _413  and  _416
REMARK  173  A    between atoms: _416  and  _417
REMARK  174  A    between atoms: _420  and  _422
REMARK  175  A    between atoms: _422  and  _423
REMARK  176  A    between atoms: _422  and  _425
REMARK  177  A    between atoms: _425  and  _426
REMARK  178  A    between atoms: _429  and  _431
REMARK  179  A    between atoms: _431  and  _432
REMARK  180  A    between atoms: _431  and  _434
REMARK  181  A    between atoms: _434  and  _435
REMARK  182  A    between atoms: _439  and  _440
REMARK  183  A    between atoms: _445  and  _447
REMARK  184  A    between atoms: _447  and  _448
REMARK  185  A    between atoms: _447  and  _450
REMARK  186  A    between atoms: _453  and  _455
REMARK  187  A    between atoms: _455  and  _456
REMARK  188  A    between atoms: _455  and  _458
REMARK  189  A    between atoms: _458  and  _459
REMARK  190  A    between atoms: _464  and  _466
REMARK  191  A    between atoms: _466  and  _467
REMARK  192  A    between atoms: _466  and  _469
REMARK  193  A    between atoms: _469  and  _470
REMARK  194  A    between atoms: _473  and  _475
REMARK  195  A    between atoms: _475  and  _476
REMARK  196  A    between atoms: _475  and  _478
REMARK  197  A    between atoms: _478  and  _479
REMARK  198  A    between atoms: _482  and  _484
REMARK  199  A    between atoms: _484  and  _485
REMARK  200  A    between atoms: _487  and  _489
REMARK  201  A    between atoms: _489  and  _490
REMARK  202  A    between atoms: _489  and  _492
REMARK  203  A    between atoms: _492  and  _493
REMARK  204  A    between atoms: _493  and  _494
REMARK  205  A    between atoms: _494  and  _495
REMARK                            x       y       z     vdW  Elec       q    Type
REMARK                         _______ _______ _______ _____ _____    ______ ____
ROOT
ATOM      1  C   GLY A   3       7.800  19.809   5.573  0.00  0.00    +0.243 C 
ATOM      2  O   GLY A   3       6.881  19.008   5.615  0.00  0.00    -0.273 OA
ATOM      3  N   ILE A   4       9.029  19.497   5.211  0.00  0.00    -0.297 N 
ATOM      4  H   ILE A   4       9.762  20.234   5.175  0.00  0.00    +0.150 HD
ENDROOT
BRANCH   3   5
ATOM      5  CA  ILE A   4       9.360  18.128   4.863  0.00  0.00    +0.149 C 
BRANCH   5   6
ATOM      6  C   ILE A   4       9.109  17.367   6.132  0.00  0.00    +0.241 C 
ATOM      7  O   ILE A   4       9.586  17.759   7.197  0.00  0.00    -0.273 OA
ATOM      8  N   GLY A   5       8.287  16.348   6.035  0.00  0.00    -0.295 N 
ATOM      9  H   GLY A   5       7.838  16.109   5.128  0.00  0.00    +0.150 HD
BRANCH   8  10
ATOM     10  CA  GLY A   5       8.024  15.572   7.215  0.00  0.00    +0.176 C 
BRANCH  10  11
ATOM     11  C   GLY A   5       6.715  15.923   7.867  0.00  0.00    +0.243 C 
ATOM     12  O   GLY A   5       6.311  15.201   8.750  0.00  0.00    -0.273 OA
ATOM     13  N   GLY A   6       6.034  16.982   7.445  0.00  0.00    -0.296 N 
ATOM     14  H   GLY A   6       6.401  17.575   6.673  0.00  0.00    +0.150 HD
BRANCH  13  15
ATOM     15  CA  GLY A   6       4.763  17.298   8.083  0.00  0.00    +0.163 C 
BRANCH  15  16
ATOM     16  C   GLY A   6       4.777  18.563   8.924  0.00  0.00    +0.229 C 
ATOM     17  O   GLY A   6       5.740  19.330   8.872  0.00  0.00    -0.286 OA
ENDBRANCH  15  16
ENDBRANCH  13  15
ENDBRANCH  10  11
ENDBRANCH   8  10
ENDBRANCH   5   6
BRANCH   5  18
ATOM     18  CB  ILE A   4      10.845  18.013   4.511  0.00  0.00    +0.027 C 
ATOM     19  CG2 ILE A   4      11.365  16.622   4.801  0.00  0.00    +0.002 C 
BRANCH  18  20
ATOM     20  CG1 ILE A   4      11.051  18.619   3.085  0.00  0.00    +0.002 C 
ATOM     21  CD1 ILE A   4      11.531  17.668   2.001  0.00  0.00    +0.000 C 
ENDBRANCH  18  20
ENDBRANCH   5  18
ENDBRANCH   3   5
BRANCH   1  22
ATOM     22  CA  GLY A   3       7.598  21.222   5.997  0.00  0.00    +0.176 C 
BRANCH  22  24
ATOM     23  C   GLY A   2       5.912  22.371   7.142  0.00  0.00    +0.243 C 
ATOM     24  N   GLY A   3       6.528  21.246   6.932  0.00  0.00    -0.295 N 
ATOM     25  H   GLY A   3       6.244  20.382   7.437  0.00  0.00    +0.150 HD
ATOM     26  O   GLY A   2       6.240  23.401   6.611  0.00  0.00    -0.273 OA
BRANCH  23  27
ATOM     27  CA  GLY A   2       4.782  22.349   8.100  0.00  0.00    +0.176 C 
BRANCH  27  30
ATOM     28  C   ILE A   1       4.471  23.787   9.998  0.00  0.00    +0.238 C 
ATOM     29  O   ILE A   1       4.789  22.886  10.738  0.00  0.00    -0.274 OA
ATOM     30  N   GLY A   2       4.477  23.654   8.672  0.00  0.00    -0.296 N 
ATOM     31  H   GLY A   2       4.268  24.466   8.057  0.00  0.00    +0.150 HD
BRANCH  28  32
ATOM     32  CA  ILE A   1       4.071  25.128  10.584  0.00  0.00    +0.145 C 
BRANCH  32  33
ATOM     33  N   ILE A   1       3.323  24.809  11.782  0.00  0.00    -0.238 NA
ATOM     34  H   ILE A   1       3.728  24.221  12.538  0.00  0.00    +0.142 HD
ENDBRANCH  32  33
BRANCH  32  35
ATOM     35  CB  ILE A   1       5.308  25.960  10.772  0.00  0.00    +0.025 C 
ATOM     36  CG2 ILE A   1       4.966  27.403  11.085  0.00  0.00    +0.002 C 
BRANCH  35  37
ATOM     37  CG1 ILE A   1       6.167  25.321  11.809  0.00  0.00    +0.002 C 
ATOM     38  CD1 ILE A   1       6.789  26.333  12.719  0.00  0.00    +0.000 C 
ENDBRANCH  35  37
ENDBRANCH  32  35
ENDBRANCH  28  32
ENDBRANCH  27  30
ENDBRANCH  23  27
ENDBRANCH  22  24
ENDBRANCH   1  22
TORSDOF 16
REMARK  Name = ../refined-set-2016/1ajx/1ajx_pocket.pdb
REMARK  205 active torsions:
REMARK  status: ('A' for Active; 'I' for Inactive)
REMARK    1  A    between atoms: _1  and  _3
REMARK    2  A    between atoms: _3  and  _4
REMARK    3  A    between atoms: _3  and  _6
REMARK    4  A    between atoms: _6  and  _7
REMARK    5  A    between atoms: _7  and  _8
REMARK    6  A    between atoms: _8  and  _9
REMARK    7  A    between atoms: _18  and  _20
REMARK    8  A    between atoms: _20  and  _21
REMARK    9  A    between atoms: _20  and  _23
REMARK   10  A    between atoms: _23  and  _24
REMARK   11  A    between atoms: _27  and  _29
REMARK   12  A    between atoms: _29  and  _30
REMARK   13  A    between atoms: _29  and  _32
REMARK   14  A    between atoms: _32  and  _33
REMARK   15  A    between atoms: _36  and  _38
REMARK   16  A    between atoms: _38  and  _39
REMARK   17  A    between atoms: _38  and  _41
REMARK   18  A    between atoms: _41  and  _42
REMARK   19  A    between atoms: _45  and  _47
REMARK   20  A    between atoms: _47  and  _48
REMARK   21  A    between atoms: _47  and  _50
REMARK   22  A    between atoms: _50  and  _51
REMARK   23  A    between atoms: _54  and  _56
REMARK   24  A    between atoms: _56  and  _57
REMARK   25  A    between atoms: _59  and  _61
REMARK   26  A    between atoms: _61  and  _62
REMARK   27  A    between atoms: _65  and  _67
REMARK   28  A    between atoms: _67  and  _68
REMARK   29  A    between atoms: _67  and  _70
REMARK   30  A    between atoms: _70  and  _71
REMARK   31  A    between atoms: _74  and  _76
REMARK   32  A    between atoms: _76  and  _77
REMARK   33  A    between atoms: _76  and  _79
REMARK   34  A    between atoms: _79  and  _80
REMARK   35  A    between atoms: _83  and  _85
REMARK   36  A    between atoms: _85  and  _86
REMARK   37  A    between atoms: _85  and  _88
REMARK   38  A    between atoms: _88  and  _89
REMARK   39  A    between atoms: _92  and  _94
REMARK   40  A    between atoms: _94  and  _95
REMARK   41  A    between atoms: _94  and  _97
REMARK   42  A    between atoms: _100  and  _102
REMARK   43  A    between atoms: _102  and  _103
REMARK   44  A    between atoms: _102  and  _105
REMARK   45  A    between atoms: _105  and  _106
REMARK   46  A    between atoms: _109  and  _111
REMARK   47  A    between atoms: _111  and  _112
REMARK   48  A    between atoms: _114  and  _116
REMARK   49  A    between atoms: _116  and  _117
REMARK   50  A    between atoms: _119  and  _121
REMARK   51  A    between atoms: _121  and  _122
REMARK   52  A    between atoms: _121  and  _124
REMARK   53  A    between atoms: _124  and  _125
REMARK   54  A    between atoms: _128  and  _130
REMARK   55  A    between atoms: _130  and  _131
REMARK   56  A    between atoms: _133  and  _135
REMARK   57  A    between atoms: _135  and  _136
REMARK   58  A    between atoms: _138  and  _140
REMARK   59  A    between atoms: _140  and  _141
REMARK   60  A    between atoms: _140  and  _143
REMARK   61  A    between atoms: _143  and  _144
REMARK   62  A    between atoms: _147  and  _149
REMARK   63  A    between atoms: _149  and  _150
REMARK   64  A    between atoms: _149  and  _152
REMARK   65  A    between atoms: _152  and  _153
REMARK   66  A    between atoms: _156  and  _158
REMARK   67  A    between atoms: _158  and  _159
REMARK   68  A    between atoms: _158  and  _161
REMARK   69  A    between atoms: _161  and  _162
REMARK   70  A    between atoms: _166  and  _167
REMARK   71  A    between atoms: _172  and  _174
REMARK   72  A    between atoms: _174  and  _175
REMARK   73  A    between atoms: _174  and  _177
REMARK   74  A    between atoms: _180  and  _182
REMARK   75  A    between atoms: _182  and  _183
REMARK   76  A    between atoms: _182  and  _185
REMARK   77  A    between atoms: _185  and  _186
REMARK   78  A    between atoms: _191  and  _193
REMARK   79  A    between atoms: _193  and  _194
REMARK   80  A    between atoms: _193  and  _196
REMARK   81  A    between atoms: _196  and  _197
REMARK   82  A    between atoms: _200  and  _202
REMARK   83  A    between atoms: _202  and  _203
REMARK   84  A    between atoms: _202  and  _205
REMARK   85  A    between atoms: _205  and  _206
REMARK   86  A    between atoms: _209  and  _211
REMARK   87  A    between atoms: _211  and  _212
REMARK   88  A    between atoms: _214  and  _216
REMARK   89  A    between atoms: _216  and  _217
REMARK   90  A    between atoms: _216  and  _219
REMARK   91  A    between atoms: _219  and  _220
REMARK   92  A    between atoms: _220  and  _221
REMARK   93  A    between atoms: _221  and  _222
REMARK   94  A    between atoms: _231  and  _233
REMARK   95  A    between atoms: _233  and  _234
REMARK   96  A    between atoms: _233  and  _236
REMARK   97  A    between atoms: _236  and  _237
REMARK   98  A    between atoms: _237  and  _238
REMARK   99  A    between atoms: _238  and  _239
REMARK  100  A    between atoms: _248  and  _250
REMARK  101  A    between atoms: _250  and  _251
REMARK  102  A    between atoms: _250  and  _253
REMARK  103  A    between atoms: _253  and  _254
REMARK  104  A    between atoms: _257  and  _259
REMARK  105  A    between atoms: _259  and  _260
REMARK  106  A    between atoms: _259  and  _262
REMARK  107  A    between atoms: _262  and  _263
REMARK  108  A    between atoms: _266  and  _268
REMARK  109  A    between atoms: _268  and  _269
REMARK  110  A    between atoms: _268  and  _271
REMARK  111  A    between atoms: _271  and  _272
REMARK  112  A    between atoms: _275  and  _277
REMARK  113  A    between atoms: _277  and  _278
REMARK  114  A    between atoms: _277  and  _280
REMARK  115  A    between atoms: _280  and  _281
REMARK  116  A    between atoms: _284  and  _286
REMARK  117  A    between atoms: _286  and  _287
REMARK  118  A    between atoms: _286  and  _289
REMARK  119  A    between atoms: _289  and  _290
REMARK  120  A    between atoms: _293  and  _295
REMARK  121  A    between atoms: _295  and  _296
REMARK  122  A    between atoms: _298  and  _300
REMARK  123  A    between atoms: _300  and  _301
REMARK  124  A    between atoms: _304  and  _306
REMARK  125  A    between atoms: _306  and  _307
REMARK  126  A    between atoms: _306  and  _309
REMARK  127  A    between atoms: _309  and  _310
REMARK  128  A    between atoms: _313  and  _315
REMARK  129  A    between atoms: _315  and  _316
REMARK  130  A    between atoms: _315  and  _318
REMARK  131  A    between atoms: _318  and  _319
REMARK  132  A    between atoms: _322  and  _324
REMARK  133  A    between atoms: _324  and  _325
REMARK  134  A    between atoms: _324  and  _327
REMARK  135  A    between atoms: _327  and  _328
REMARK  136  A    between atoms: _331  and  _333
REMARK  137  A    between atoms: _333  and  _334
REMARK  138  A    between atoms: _333  and  _336
REMARK  139  A    between atoms: _339  and  _341
REMARK  140  A    between atoms: _341  and  _342
REMARK  141  A    between atoms: _341  and  _344
REMARK  142  A    between atoms: _344  and  _345
REMARK  143  A    between atoms: _348  and  _350
REMARK  144  A    between atoms: _350  and  _351
REMARK  145  A    between atoms: _350  and  _353
REMARK  146  A    between atoms: _353  and  _354
REMARK  147  A    between atoms: _354  and  _355
REMARK  148  A    between atoms: _355  and  _356
REMARK  149  A    between atoms: _356  and  _357
REMARK  150  A    between atoms: _361  and  _363
REMARK  151  A    between atoms: _363  and  _364
REMARK  152  A    between atoms: _363  and  _366
REMARK  153  A    between atoms: _366  and  _367
REMARK  154  A    between atoms: _370  and  _372
REMARK  155  A    between atoms: _372  and  _373
REMARK  156  A    between atoms: _375  and  _377
REMARK  157  A    between atoms: _377  and  _378
REMARK  158  A    between atoms: _380  and  _382
REMARK  159  A    between atoms: _382  and  _383
REMARK  160  A    between atoms: _382  and  _385
REMARK  161  A    between atoms: _385  and  _386
REMARK  162  A    between atoms: _389  and  _391
REMARK  163  A    between atoms: _391  and  _392
REMARK  164  A    between atoms: _394  and  _396
REMARK  165  A    between atoms: _396  and  _397
REMARK  166  A    between atoms: _399  and  _401
REMARK  167  A    between atoms: _401  and  _402
REMARK  168  A    between atoms: _401  and  _404
REMARK  169  A    between atoms: _404  and  _405
REMARK  170  A    between atoms: _411  and  _413
REMARK  171  A    between atoms: _413  and  _414
REMARK  172  A    between atoms: _413  and  _416
REMARK  173  A    between atoms: _416  and  _417
REMARK  174  A    between atoms: _420  and  _422
REMARK  175  A    between atoms: _422  and  _423
REMARK  176  A    between atoms: _422  and  _425
REMARK  177  A    between atoms: _425  and  _426
REMARK  178  A    between atoms: _429  and  _431
REMARK  179  A    between atoms: _431  and  _432
REMARK  180  A    between atoms: _431  and  _434
REMARK  181  A    between atoms: _434  and  _435
REMARK  182  A    between atoms: _439  and  _440
REMARK  183  A    between atoms: _445  and  _447
REMARK  184  A    between atoms: _447  and  _448
REMARK  185  A    between atoms: _447  and  _450
REMARK  186  A    between atoms: _453  and  _455
REMARK  187  A    between atoms: _455  and  _456
REMARK  188  A    between atoms: _455  and  _458
REMARK  189  A    between atoms: _458  and  _459
REMARK  190  A    between atoms: _464  and  _466
REMARK  191  A    between atoms: _466  and  _467
REMARK  192  A    between atoms: _466  and  _469
REMARK  193  A    between atoms: _469  and  _470
REMARK  194  A    between atoms: _473  and  _475
REMARK  195  A    between atoms: _475  and  _476
REMARK  196  A    between atoms: _475  and  _478
REMARK  197  A    between atoms: _478  and  _479
REMARK  198  A    between atoms: _482  and  _484
REMARK  199  A    between atoms: _484  and  _485
REMARK  200  A    between atoms: _487  and  _489
REMARK  201  A    between atoms: _489  and  _490
REMARK  202  A    between atoms: _489  and  _492
REMARK  203  A    between atoms: _492  and  _493
REMARK  204  A    between atoms: _493  and  _494
REMARK  205  A    between atoms: _494  and  _495
REMARK                            x       y       z     vdW  Elec       q    Type
REMARK                         _______ _______ _______ _____ _____    ______ ____
ROOT
ATOM      1  CA  ILE A   1       4.761  20.971  14.053  0.00  0.00    +0.133 C 
ENDROOT
BRANCH   1   2
ATOM      2  N   ILE A   1       4.436  20.938  12.609  0.00  0.00    -0.239 NA
ATOM      3  H   ILE A   1       4.501  21.821  12.064  0.00  0.00    +0.142 HD
ENDBRANCH   1   2
BRANCH   1   4
ATOM      4  C   ILE A   1       4.015  22.160  14.659  0.00  0.00    +0.224 C 
ATOM      5  O   ILE A   1       3.673  23.092  13.957  0.00  0.00    -0.287 OA
ENDBRANCH   1   4
BRANCH   1   6
ATOM      6  CB  ILE A   1       6.308  21.040  14.425  0.00  0.00    +0.023 C 
ATOM      7  CG2 ILE A   1       6.987  19.758  13.997  0.00  0.00    +0.002 C 
BRANCH   6   8
ATOM      8  CG1 ILE A   1       7.008  22.272  13.815  0.00  0.00    +0.002 C 
ATOM      9  CD1 ILE A   1       8.387  22.583  14.412  0.00  0.00    +0.000 C 
ENDBRANCH   6   8
ENDBRANCH   1   6
TORSDOF 4
REMARK  Name = ../refined-set-2016/1ajx/1ajx_pocket.pdb
REMARK  205 active torsions:
REMARK  status: ('A' for Active; 'I' for Inactive)
REMARK    1  A    between atoms: _1  and  _3
REMARK    2  A    between atoms: _3  and  _4
REMARK    3  A    between atoms: _3  and  _6
REMARK    4  A    between atoms: _6  and  _7
REMARK    5  A    between atoms: _7  and  _8
REMARK    6  A    between atoms: _8  and  _9
REMARK    7  A    between atoms: _18  and  _20
REMARK    8  A    between atoms: _20  and  _21
REMARK    9  A    between atoms: _20  and  _23
REMARK   10  A    between atoms: _23  and  _24
REMARK   11  A    between atoms: _27  and  _29
REMARK   12  A    between atoms: _29  and  _30
REMARK   13  A    between atoms: _29  and  _32
REMARK   14  A    between atoms: _32  and  _33
REMARK   15  A    between atoms: _36  and  _38
REMARK   16  A    between atoms: _38  and  _39
REMARK   17  A    between atoms: _38  and  _41
REMARK   18  A    between atoms: _41  and  _42
REMARK   19  A    between atoms: _45  and  _47
REMARK   20  A    between atoms: _47  and  _48
REMARK   21  A    between atoms: _47  and  _50
REMARK   22  A    between atoms: _50  and  _51
REMARK   23  A    between atoms: _54  and  _56
REMARK   24  A    between atoms: _56  and  _57
REMARK   25  A    between atoms: _59  and  _61
REMARK   26  A    between atoms: _61  and  _62
REMARK   27  A    between atoms: _65  and  _67
REMARK   28  A    between atoms: _67  and  _68
REMARK   29  A    between atoms: _67  and  _70
REMARK   30  A    between atoms: _70  and  _71
REMARK   31  A    between atoms: _74  and  _76
REMARK   32  A    between atoms: _76  and  _77
REMARK   33  A    between atoms: _76  and  _79
REMARK   34  A    between atoms: _79  and  _80
REMARK   35  A    between atoms: _83  and  _85
REMARK   36  A    between atoms: _85  and  _86
REMARK   37  A    between atoms: _85  and  _88
REMARK   38  A    between atoms: _88  and  _89
REMARK   39  A    between atoms: _92  and  _94
REMARK   40  A    between atoms: _94  and  _95
REMARK   41  A    between atoms: _94  and  _97
REMARK   42  A    between atoms: _100  and  _102
REMARK   43  A    between atoms: _102  and  _103
REMARK   44  A    between atoms: _102  and  _105
REMARK   45  A    between atoms: _105  and  _106
REMARK   46  A    between atoms: _109  and  _111
REMARK   47  A    between atoms: _111  and  _112
REMARK   48  A    between atoms: _114  and  _116
REMARK   49  A    between atoms: _116  and  _117
REMARK   50  A    between atoms: _119  and  _121
REMARK   51  A    between atoms: _121  and  _122
REMARK   52  A    between atoms: _121  and  _124
REMARK   53  A    between atoms: _124  and  _125
REMARK   54  A    between atoms: _128  and  _130
REMARK   55  A    between atoms: _130  and  _131
REMARK   56  A    between atoms: _133  and  _135
REMARK   57  A    between atoms: _135  and  _136
REMARK   58  A    between atoms: _138  and  _140
REMARK   59  A    between atoms: _140  and  _141
REMARK   60  A    between atoms: _140  and  _143
REMARK   61  A    between atoms: _143  and  _144
REMARK   62  A    between atoms: _147  and  _149
REMARK   63  A    between atoms: _149  and  _150
REMARK   64  A    between atoms: _149  and  _152
REMARK   65  A    between atoms: _152  and  _153
REMARK   66  A    between atoms: _156  and  _158
REMARK   67  A    between atoms: _158  and  _159
REMARK   68  A    between atoms: _158  and  _161
REMARK   69  A    between atoms: _161  and  _162
REMARK   70  A    between atoms: _166  and  _167
REMARK   71  A    between atoms: _172  and  _174
REMARK   72  A    between atoms: _174  and  _175
REMARK   73  A    between atoms: _174  and  _177
REMARK   74  A    between atoms: _180  and  _182
REMARK   75  A    between atoms: _182  and  _183
REMARK   76  A    between atoms: _182  and  _185
REMARK   77  A    between atoms: _185  and  _186
REMARK   78  A    between atoms: _191  and  _193
REMARK   79  A    between atoms: _193  and  _194
REMARK   80  A    between atoms: _193  and  _196
REMARK   81  A    between atoms: _196  and  _197
REMARK   82  A    between atoms: _200  and  _202
REMARK   83  A    between atoms: _202  and  _203
REMARK   84  A    between atoms: _202  and  _205
REMARK   85  A    between atoms: _205  and  _206
REMARK   86  A    between atoms: _209  and  _211
REMARK   87  A    between atoms: _211  and  _212
REMARK   88  A    between atoms: _214  and  _216
REMARK   89  A    between atoms: _216  and  _217
REMARK   90  A    between atoms: _216  and  _219
REMARK   91  A    between atoms: _219  and  _220
REMARK   92  A    between atoms: _220  and  _221
REMARK   93  A    between atoms: _221  and  _222
REMARK   94  A    between atoms: _231  and  _233
REMARK   95  A    between atoms: _233  and  _234
REMARK   96  A    between atoms: _233  and  _236
REMARK   97  A    between atoms: _236  and  _237
REMARK   98  A    between atoms: _237  and  _238
REMARK   99  A    between atoms: _238  and  _239
REMARK  100  A    between atoms: _248  and  _250
REMARK  101  A    between atoms: _250  and  _251
REMARK  102  A    between atoms: _250  and  _253
REMARK  103  A    between atoms: _253  and  _254
REMARK  104  A    between atoms: _257  and  _259
REMARK  105  A    between atoms: _259  and  _260
REMARK  106  A    between atoms: _259  and  _262
REMARK  107  A    between atoms: _262  and  _263
REMARK  108  A    between atoms: _266  and  _268
REMARK  109  A    between atoms: _268  and  _269
REMARK  110  A    between atoms: _268  and  _271
REMARK  111  A    between atoms: _271  and  _272
REMARK  112  A    between atoms: _275  and  _277
REMARK  113  A    between atoms: _277  and  _278
REMARK  114  A    between atoms: _277  and  _280
REMARK  115  A    between atoms: _280  and  _281
REMARK  116  A    between atoms: _284  and  _286
REMARK  117  A    between atoms: _286  and  _287
REMARK  118  A    between atoms: _286  and  _289
REMARK  119  A    between atoms: _289  and  _290
REMARK  120  A    between atoms: _293  and  _295
REMARK  121  A    between atoms: _295  and  _296
REMARK  122  A    between atoms: _298  and  _300
REMARK  123  A    between atoms: _300  and  _301
REMARK  124  A    between atoms: _304  and  _306
REMARK  125  A    between atoms: _306  and  _307
REMARK  126  A    between atoms: _306  and  _309
REMARK  127  A    between atoms: _309  and  _310
REMARK  128  A    between atoms: _313  and  _315
REMARK  129  A    between atoms: _315  and  _316
REMARK  130  A    between atoms: _315  and  _318
REMARK  131  A    between atoms: _318  and  _319
REMARK  132  A    between atoms: _322  and  _324
REMARK  133  A    between atoms: _324  and  _325
REMARK  134  A    between atoms: _324  and  _327
REMARK  135  A    between atoms: _327  and  _328
REMARK  136  A    between atoms: _331  and  _333
REMARK  137  A    between atoms: _333  and  _334
REMARK  138  A    between atoms: _333  and  _336
REMARK  139  A    between atoms: _339  and  _341
REMARK  140  A    between atoms: _341  and  _342
REMARK  141  A    between atoms: _341  and  _344
REMARK  142  A    between atoms: _344  and  _345
REMARK  143  A    between atoms: _348  and  _350
REMARK  144  A    between atoms: _350  and  _351
REMARK  145  A    between atoms: _350  and  _353
REMARK  146  A    between atoms: _353  and  _354
REMARK  147  A    between atoms: _354  and  _355
REMARK  148  A    between atoms: _355  and  _356
REMARK  149  A    between atoms: _356  and  _357
REMARK  150  A    between atoms: _361  and  _363
REMARK  151  A    between atoms: _363  and  _364
REMARK  152  A    between atoms: _363  and  _366
REMARK  153  A    between atoms: _366  and  _367
REMARK  154  A    between atoms: _370  and  _372
REMARK  155  A    between atoms: _372  and  _373
REMARK  156  A    between atoms: _375  and  _377
REMARK  157  A    between atoms: _377  and  _378
REMARK  158  A    between atoms: _380  and  _382
REMARK  159  A    between atoms: _382  and  _383
REMARK  160  A    between atoms: _382  and  _385
REMARK  161  A    between atoms: _385  and  _386
REMARK  162  A    between atoms: _389  and  _391
REMARK  163  A    between atoms: _391  and  _392
REMARK  164  A    between atoms: _394  and  _396
REMARK  165  A    between atoms: _396  and  _397
REMARK  166  A    between atoms: _399  and  _401
REMARK  167  A    between atoms: _401  and  _402
REMARK  168  A    between atoms: _401  and  _404
REMARK  169  A    between atoms: _404  and  _405
REMARK  170  A    between atoms: _411  and  _413
REMARK  171  A    between atoms: _413  and  _414
REMARK  172  A    between atoms: _413  and  _416
REMARK  173  A    between atoms: _416  and  _417
REMARK  174  A    between atoms: _420  and  _422
REMARK  175  A    between atoms: _422  and  _423
REMARK  176  A    between atoms: _422  and  _425
REMARK  177  A    between atoms: _425  and  _426
REMARK  178  A    between atoms: _429  and  _431
REMARK  179  A    between atoms: _431  and  _432
REMARK  180  A    between atoms: _431  and  _434
REMARK  181  A    between atoms: _434  and  _435
REMARK  182  A    between atoms: _439  and  _440
REMARK  183  A    between atoms: _445  and  _447
REMARK  184  A    between atoms: _447  and  _448
REMARK  185  A    between atoms: _447  and  _450
REMARK  186  A    between atoms: _453  and  _455
REMARK  187  A    between atoms: _455  and  _456
REMARK  188  A    between atoms: _455  and  _458
REMARK  189  A    between atoms: _458  and  _459
REMARK  190  A    between atoms: _464  and  _466
REMARK  191  A    between atoms: _466  and  _467
REMARK  192  A    between atoms: _466  and  _469
REMARK  193  A    between atoms: _469  and  _470
REMARK  194  A    between atoms: _473  and  _475
REMARK  195  A    between atoms: _475  and  _476
REMARK  196  A    between atoms: _475  and  _478
REMARK  197  A    between atoms: _478  and  _479
REMARK  198  A    between atoms: _482  and  _484
REMARK  199  A    between atoms: _484  and  _485
REMARK  200  A    between atoms: _487  and  _489
REMARK  201  A    between atoms: _489  and  _490
REMARK  202  A    between atoms: _489  and  _492
REMARK  203  A    between atoms: _492  and  _493
REMARK  204  A    between atoms: _493  and  _494
REMARK  205  A    between atoms: _494  and  _495
REMARK                            x       y       z     vdW  Elec       q    Type
REMARK                         _______ _______ _______ _____ _____    ______ ____
ROOT
ATOM      1  CA  LEU A   1       8.185  30.822  16.453  0.00  0.00    +0.133 C 
ENDROOT
BRANCH   1   2
ATOM      2  N   LEU A   1       8.958  32.036  16.121  0.00  0.00    -0.239 NA
ATOM      3  H   LEU A   1       9.665  31.977  15.361  0.00  0.00    +0.142 HD
ENDBRANCH   1   2
BRANCH   1   4
ATOM      4  C   LEU A   1       9.145  29.961  17.279  0.00  0.00    +0.224 C 
ATOM      5  O   LEU A   1      10.299  29.777  16.927  0.00  0.00    -0.287 OA
ENDBRANCH   1   4
BRANCH   1   6
ATOM      6  CB  LEU A   1       7.754  30.064  15.193  0.00  0.00    +0.025 C 
BRANCH   6   7
ATOM      7  CG  LEU A   1       7.016  30.956  14.133  0.00  0.00    +0.002 C 
ATOM      8  CD2 LEU A   1       5.745  31.687  14.749  0.00  0.00    +0.000 C 
ATOM      9  CD1 LEU A   1       6.687  30.124  12.881  0.00  0.00    +0.000 C 
ENDBRANCH   6   7
ENDBRANCH   1   6
TORSDOF 4
REMARK  Name = ../refined-set-2016/1ajx/1ajx_pocket.pdb
REMARK  205 active torsions:
REMARK  status: ('A' for Active; 'I' for Inactive)
REMARK    1  A    between atoms: _1  and  _3
REMARK    2  A    between atoms: _3  and  _4
REMARK    3  A    between atoms: _3  and  _6
REMARK    4  A    between atoms: _6  and  _7
REMARK    5  A    between atoms: _7  and  _8
REMARK    6  A    between atoms: _8  and  _9
REMARK    7  A    between atoms: _18  and  _20
REMARK    8  A    between atoms: _20  and  _21
REMARK    9  A    between atoms: _20  and  _23
REMARK   10  A    between atoms: _23  and  _24
REMARK   11  A    between atoms: _27  and  _29
REMARK   12  A    between atoms: _29  and  _30
REMARK   13  A    between atoms: _29  and  _32
REMARK   14  A    between atoms: _32  and  _33
REMARK   15  A    between atoms: _36  and  _38
REMARK   16  A    between atoms: _38  and  _39
REMARK   17  A    between atoms: _38  and  _41
REMARK   18  A    between atoms: _41  and  _42
REMARK   19  A    between atoms: _45  and  _47
REMARK   20  A    between atoms: _47  and  _48
REMARK   21  A    between atoms: _47  and  _50
REMARK   22  A    between atoms: _50  and  _51
REMARK   23  A    between atoms: _54  and  _56
REMARK   24  A    between atoms: _56  and  _57
REMARK   25  A    between atoms: _59  and  _61
REMARK   26  A    between atoms: _61  and  _62
REMARK   27  A    between atoms: _65  and  _67
REMARK   28  A    between atoms: _67  and  _68
REMARK   29  A    between atoms: _67  and  _70
REMARK   30  A    between atoms: _70  and  _71
REMARK   31  A    between atoms: _74  and  _76
REMARK   32  A    between atoms: _76  and  _77
REMARK   33  A    between atoms: _76  and  _79
REMARK   34  A    between atoms: _79  and  _80
REMARK   35  A    between atoms: _83  and  _85
REMARK   36  A    between atoms: _85  and  _86
REMARK   37  A    between atoms: _85  and  _88
REMARK   38  A    between atoms: _88  and  _89
REMARK   39  A    between atoms: _92  and  _94
REMARK   40  A    between atoms: _94  and  _95
REMARK   41  A    between atoms: _94  and  _97
REMARK   42  A    between atoms: _100  and  _102
REMARK   43  A    between atoms: _102  and  _103
REMARK   44  A    between atoms: _102  and  _105
REMARK   45  A    between atoms: _105  and  _106
REMARK   46  A    between atoms: _109  and  _111
REMARK   47  A    between atoms: _111  and  _112
REMARK   48  A    between atoms: _114  and  _116
REMARK   49  A    between atoms: _116  and  _117
REMARK   50  A    between atoms: _119  and  _121
REMARK   51  A    between atoms: _121  and  _122
REMARK   52  A    between atoms: _121  and  _124
REMARK   53  A    between atoms: _124  and  _125
REMARK   54  A    between atoms: _128  and  _130
REMARK   55  A    between atoms: _130  and  _131
REMARK   56  A    between atoms: _133  and  _135
REMARK   57  A    between atoms: _135  and  _136
REMARK   58  A    between atoms: _138  and  _140
REMARK   59  A    between atoms: _140  and  _141
REMARK   60  A    between atoms: _140  and  _143
REMARK   61  A    between atoms: _143  and  _144
REMARK   62  A    between atoms: _147  and  _149
REMARK   63  A    between atoms: _149  and  _150
REMARK   64  A    between atoms: _149  and  _152
REMARK   65  A    between atoms: _152  and  _153
REMARK   66  A    between atoms: _156  and  _158
REMARK   67  A    between atoms: _158  and  _159
REMARK   68  A    between atoms: _158  and  _161
REMARK   69  A    between atoms: _161  and  _162
REMARK   70  A    between atoms: _166  and  _167
REMARK   71  A    between atoms: _172  and  _174
REMARK   72  A    between atoms: _174  and  _175
REMARK   73  A    between atoms: _174  and  _177
REMARK   74  A    between atoms: _180  and  _182
REMARK   75  A    between atoms: _182  and  _183
REMARK   76  A    between atoms: _182  and  _185
REMARK   77  A    between atoms: _185  and  _186
REMARK   78  A    between atoms: _191  and  _193
REMARK   79  A    between atoms: _193  and  _194
REMARK   80  A    between atoms: _193  and  _196
REMARK   81  A    between atoms: _196  and  _197
REMARK   82  A    between atoms: _200  and  _202
REMARK   83  A    between atoms: _202  and  _203
REMARK   84  A    between atoms: _202  and  _205
REMARK   85  A    between atoms: _205  and  _206
REMARK   86  A    between atoms: _209  and  _211
REMARK   87  A    between atoms: _211  and  _212
REMARK   88  A    between atoms: _214  and  _216
REMARK   89  A    between atoms: _216  and  _217
REMARK   90  A    between atoms: _216  and  _219
REMARK   91  A    between atoms: _219  and  _220
REMARK   92  A    between atoms: _220  and  _221
REMARK   93  A    between atoms: _221  and  _222
REMARK   94  A    between atoms: _231  and  _233
REMARK   95  A    between atoms: _233  and  _234
REMARK   96  A    between atoms: _233  and  _236
REMARK   97  A    between atoms: _236  and  _237
REMARK   98  A    between atoms: _237  and  _238
REMARK   99  A    between atoms: _238  and  _239
REMARK  100  A    between atoms: _248  and  _250
REMARK  101  A    between atoms: _250  and  _251
REMARK  102  A    between atoms: _250  and  _253
REMARK  103  A    between atoms: _253  and  _254
REMARK  104  A    between atoms: _257  and  _259
REMARK  105  A    between atoms: _259  and  _260
REMARK  106  A    between atoms: _259  and  _262
REMARK  107  A    between atoms: _262  and  _263
REMARK  108  A    between atoms: _266  and  _268
REMARK  109  A    between atoms: _268  and  _269
REMARK  110  A    between atoms: _268  and  _271
REMARK  111  A    between atoms: _271  and  _272
REMARK  112  A    between atoms: _275  and  _277
REMARK  113  A    between atoms: _277  and  _278
REMARK  114  A    between atoms: _277  and  _280
REMARK  115  A    between atoms: _280  and  _281
REMARK  116  A    between atoms: _284  and  _286
REMARK  117  A    between atoms: _286  and  _287
REMARK  118  A    between atoms: _286  and  _289
REMARK  119  A    between atoms: _289  and  _290
REMARK  120  A    between atoms: _293  and  _295
REMARK  121  A    between atoms: _295  and  _296
REMARK  122  A    between atoms: _298  and  _300
REMARK  123  A    between atoms: _300  and  _301
REMARK  124  A    between atoms: _304  and  _306
REMARK  125  A    between atoms: _306  and  _307
REMARK  126  A    between atoms: _306  and  _309
REMARK  127  A    between atoms: _309  and  _310
REMARK  128  A    between atoms: _313  and  _315
REMARK  129  A    between atoms: _315  and  _316
REMARK  130  A    between atoms: _315  and  _318
REMARK  131  A    between atoms: _318  and  _319
REMARK  132  A    between atoms: _322  and  _324
REMARK  133  A    between atoms: _324  and  _325
REMARK  134  A    between atoms: _324  and  _327
REMARK  135  A    between atoms: _327  and  _328
REMARK  136  A    between atoms: _331  and  _333
REMARK  137  A    between atoms: _333  and  _334
REMARK  138  A    between atoms: _333  and  _336
REMARK  139  A    between atoms: _339  and  _341
REMARK  140  A    between atoms: _341  and  _342
REMARK  141  A    between atoms: _341  and  _344
REMARK  142  A    between atoms: _344  and  _345
REMARK  143  A    between atoms: _348  and  _350
REMARK  144  A    between atoms: _350  and  _351
REMARK  145  A    between atoms: _350  and  _353
REMARK  146  A    between atoms: _353  and  _354
REMARK  147  A    between atoms: _354  and  _355
REMARK  148  A    between atoms: _355  and  _356
REMARK  149  A    between atoms: _356  and  _357
REMARK  150  A    between atoms: _361  and  _363
REMARK  151  A    between atoms: _363  and  _364
REMARK  152  A    between atoms: _363  and  _366
REMARK  153  A    between atoms: _366  and  _367
REMARK  154  A    between atoms: _370  and  _372
REMARK  155  A    between atoms: _372  and  _373
REMARK  156  A    between atoms: _375  and  _377
REMARK  157  A    between atoms: _377  and  _378
REMARK  158  A    between atoms: _380  and  _382
REMARK  159  A    between atoms: _382  and  _383
REMARK  160  A    between atoms: _382  and  _385
REMARK  161  A    between atoms: _385  and  _386
REMARK  162  A    between atoms: _389  and  _391
REMARK  163  A    between atoms: _391  and  _392
REMARK  164  A    between atoms: _394  and  _396
REMARK  165  A    between atoms: _396  and  _397
REMARK  166  A    between atoms: _399  and  _401
REMARK  167  A    between atoms: _401  and  _402
REMARK  168  A    between atoms: _401  and  _404
REMARK  169  A    between atoms: _404  and  _405
REMARK  170  A    between atoms: _411  and  _413
REMARK  171  A    between atoms: _413  and  _414
REMARK  172  A    between atoms: _413  and  _416
REMARK  173  A    between atoms: _416  and  _417
REMARK  174  A    between atoms: _420  and  _422
REMARK  175  A    between atoms: _422  and  _423
REMARK  176  A    between atoms: _422  and  _425
REMARK  177  A    between atoms: _425  and  _426
REMARK  178  A    between atoms: _429  and  _431
REMARK  179  A    between atoms: _431  and  _432
REMARK  180  A    between atoms: _431  and  _434
REMARK  181  A    between atoms: _434  and  _435
REMARK  182  A    between atoms: _439  and  _440
REMARK  183  A    between atoms: _445  and  _447
REMARK  184  A    between atoms: _447  and  _448
REMARK  185  A    between atoms: _447  and  _450
REMARK  186  A    between atoms: _453  and  _455
REMARK  187  A    between atoms: _455  and  _456
REMARK  188  A    between atoms: _455  and  _458
REMARK  189  A    between atoms: _458  and  _459
REMARK  190  A    between atoms: _464  and  _466
REMARK  191  A    between atoms: _466  and  _467
REMARK  192  A    between atoms: _466  and  _469
REMARK  193  A    between atoms: _469  and  _470
REMARK  194  A    between atoms: _473  and  _475
REMARK  195  A    between atoms: _475  and  _476
REMARK  196  A    between atoms: _475  and  _478
REMARK  197  A    between atoms: _478  and  _479
REMARK  198  A    between atoms: _482  and  _484
REMARK  199  A    between atoms: _484  and  _485
REMARK  200  A    between atoms: _487  and  _489
REMARK  201  A    between atoms: _489  and  _490
REMARK  202  A    between atoms: _489  and  _492
REMARK  203  A    between atoms: _492  and  _493
REMARK  204  A    between atoms: _493  and  _494
REMARK  205  A    between atoms: _494  and  _495
REMARK                            x       y       z     vdW  Elec       q    Type
REMARK                         _______ _______ _______ _____ _____    ______ ____
ROOT
ATOM      1  CA  ILE A   5      16.362  28.532  11.745  0.00  0.00    +0.149 C 
ENDROOT
BRANCH   1   3
ATOM      2  C   ASN A   4      17.475  27.473  13.590  0.00  0.00    +0.241 C 
ATOM      3  N   ILE A   5      16.397  28.088  13.122  0.00  0.00    -0.297 N 
ATOM      4  H   ILE A   5      15.579  28.251  13.743  0.00  0.00    +0.150 HD
ATOM      5  O   ASN A   4      18.475  27.345  12.905  0.00  0.00    -0.273 OA
BRANCH   2   6
ATOM      6  CA  ASN A   4      17.455  26.967  15.062  0.00  0.00    +0.158 C 
BRANCH   6   8
ATOM      7  C   VAL A   3      17.190  24.628  14.459  0.00  0.00    +0.241 C 
ATOM      8  N   ASN A   4      17.913  25.598  15.027  0.00  0.00    -0.297 N 
ATOM      9  H   ASN A   4      18.830  25.360  15.455  0.00  0.00    +0.150 HD
ATOM     10  O   VAL A   3      15.995  24.750  14.154  0.00  0.00    -0.273 OA
BRANCH   7  11
ATOM     11  CA  VAL A   3      17.836  23.237  14.425  0.00  0.00    +0.149 C 
BRANCH  11  14
ATOM     12  C   PRO A   2      16.814  21.103  15.106  0.00  0.00    +0.241 C 
ATOM     13  O   PRO A   2      17.862  20.765  15.693  0.00  0.00    -0.273 OA
ATOM     14  N   VAL A   3      16.700  22.288  14.468  0.00  0.00    -0.297 N 
ATOM     15  H   VAL A   3      15.804  22.537  14.002  0.00  0.00    +0.150 HD
BRANCH  12  19
ATOM     16  C   THR A   1      13.761  21.614  15.980  0.00  0.00    +0.244 C 
ATOM     17  O   THR A   1      14.351  21.812  17.046  0.00  0.00    -0.273 OA
ATOM     18  N   PRO A   2      14.297  20.861  14.981  0.00  0.00    -0.272 N 
ATOM     19  CA  PRO A   2      15.589  20.148  15.084  0.00  0.00    +0.152 C 
ATOM     20  CB  PRO A   2      15.611  19.279  13.796  0.00  0.00    +0.031 C 
ATOM     21  CG  PRO A   2      14.728  20.094  12.823  0.00  0.00    +0.024 C 
ATOM     22  CD  PRO A   2      13.607  20.489  13.727  0.00  0.00    +0.094 C 
BRANCH  16  23
ATOM     23  CA  THR A   1      12.442  22.293  15.723  0.00  0.00    +0.172 C 
BRANCH  23  24
ATOM     24  CB  THR A   1      12.699  23.698  15.126  0.00  0.00    +0.135 C 
ATOM     25  CG2 THR A   1      13.442  24.548  16.119  0.00  0.00    +0.034 C 
BRANCH  24  26
ATOM     26  OG1 THR A   1      13.514  23.541  13.967  0.00  0.00    -0.383 OA
ATOM     27  HG1 THR A   1      14.371  23.115  14.222  0.00  0.00    +0.210 HD
ENDBRANCH  24  26
ENDBRANCH  23  24
BRANCH  23  28
ATOM     28  N   THR A   1      11.696  22.362  16.957  0.00  0.00    -0.236 NA
ATOM     29  H   THR A   1      11.633  23.263  17.472  0.00  0.00    +0.142 HD
ENDBRANCH  23  28
ENDBRANCH  16  23
ENDBRANCH  12  19
ENDBRANCH  11  14
BRANCH  11  30
ATOM     30  CB  VAL A   3      18.698  22.992  13.098  0.00  0.00    +0.027 C 
ATOM     31  CG2 VAL A   3      19.586  24.095  12.841  0.00  0.00    +0.002 C 
ATOM     32  CG1 VAL A   3      17.867  22.880  11.920  0.00  0.00    +0.002 C 
ENDBRANCH  11  30
ENDBRANCH   7  11
ENDBRANCH   6   8
BRANCH   6  33
ATOM     33  CB  ASN A   4      18.317  27.810  16.009  0.00  0.00    +0.114 C 
BRANCH  33  34
ATOM     34  CG  ASN A   4      18.122  27.408  17.453  0.00  0.00    +0.222 C 
ATOM     35  ND2 ASN A   4      19.160  27.430  18.210  0.00  0.00    -0.329 N 
ATOM     36 HD21 ASN A   4      19.081  27.151  19.209  0.00  0.00    +0.145 HD
ATOM     37 HD22 ASN A   4      20.079  27.727  17.824  0.00  0.00    +0.145 HD
ATOM     38  OD1 ASN A   4      17.039  27.070  17.861  0.00  0.00    -0.275 OA
ENDBRANCH  33  34
ENDBRANCH   6  33
ENDBRANCH   2   6
ENDBRANCH   1   3
BRANCH   1  39
ATOM     39  C   ILE A   5      15.973  30.031  11.713  0.00  0.00    +0.241 C 
ATOM     40  O   ILE A   5      14.980  30.413  12.323  0.00  0.00    -0.273 OA
ATOM     41  N   ILE A   6      16.750  30.810  10.977  0.00  0.00    -0.297 N 
ATOM     42  H   ILE A   6      17.596  30.382  10.550  0.00  0.00    +0.150 HD
BRANCH  41  43
ATOM     43  CA  ILE A   6      16.508  32.214  10.724  0.00  0.00    +0.149 C 
BRANCH  43  44
ATOM     44  C   ILE A   6      15.882  32.246   9.311  0.00  0.00    +0.241 C 
ATOM     45  N   GLY A   7      14.622  32.629   9.225  0.00  0.00    -0.295 N 
ATOM     46  H   GLY A   7      14.112  32.900  10.090  0.00  0.00    +0.150 HD
ATOM     47  O   ILE A   6      16.520  31.928   8.348  0.00  0.00    -0.273 OA
BRANCH  45  48
ATOM     48  CA  GLY A   7      13.937  32.679   7.955  0.00  0.00    +0.176 C 
BRANCH  48  49
ATOM     49  C   GLY A   7      13.868  34.074   7.370  0.00  0.00    +0.243 C 
ATOM     50  O   GLY A   7      14.424  35.009   7.946  0.00  0.00    -0.273 OA
ATOM     51  N   ARG A   8      13.204  34.186   6.225  0.00  0.00    -0.298 N 
ATOM     52  H   ARG A   8      12.715  33.345   5.857  0.00  0.00    +0.150 HD
BRANCH  51  53
ATOM     53  CA  ARG A   8      13.122  35.411   5.461  0.00  0.00    +0.137 C 
BRANCH  53  54
ATOM     54  C   ARG A   8      12.583  36.601   6.219  0.00  0.00    +0.227 C 
ATOM     55  O   ARG A   8      12.953  37.714   5.842  0.00  0.00    -0.286 OA
ENDBRANCH  53  54
BRANCH  53  56
ATOM     56  CB  ARG A   8      12.259  35.251   4.218  0.00  0.00    +0.031 C 
BRANCH  56  57
ATOM     57  CG  ARG A   8      12.895  34.281   3.195  0.00  0.00    +0.045 C 
BRANCH  57  58
ATOM     58  CD  ARG A   8      12.155  34.198   1.849  0.00  0.00    +0.174 C 
BRANCH  58  59
ATOM     59  NE  ARG A   8      10.761  33.901   2.044  0.00  0.00    -0.265 N 
ATOM     60  HE  ARG A   8      10.506  32.901   2.170  0.00  0.00    +0.259 HD
ATOM     61  CZ  ARG A   8       9.755  34.797   2.079  0.00  0.00    +0.342 C 
ATOM     62  NH2 ARG A   8       8.537  34.344   2.291  0.00  0.00    -0.292 N 
ATOM     63 HH21 ARG A   8       8.377  33.325   2.425  0.00  0.00    +0.255 HD
ATOM     64 HH22 ARG A   8       7.735  35.005   2.325  0.00  0.00    +0.255 HD
ATOM     65  NH1 ARG A   8       9.933  36.108   1.920  0.00  0.00    -0.292 N 
ATOM     66 HH11 ARG A   8       9.117  36.752   1.957  0.00  0.00    +0.255 HD
ATOM     67 HH12 ARG A   8      10.888  36.487   1.759  0.00  0.00    +0.255 HD
ENDBRANCH  58  59
ENDBRANCH  57  58
ENDBRANCH  56  57
ENDBRANCH  53  56
ENDBRANCH  51  53
ENDBRANCH  48  49
ENDBRANCH  45  48
ENDBRANCH  43  44
BRANCH  43  68
ATOM     68  CB  ILE A   6      17.855  33.063  10.826  0.00  0.00    +0.027 C 
ATOM     69  CG2 ILE A   6      17.627  34.570  10.463  0.00  0.00    +0.002 C 
BRANCH  68  70
ATOM     70  CG1 ILE A   6      18.489  32.871  12.192  0.00  0.00    +0.002 C 
ATOM     71  CD1 ILE A   6      17.617  33.168  13.388  0.00  0.00    +0.000 C 
ENDBRANCH  68  70
ENDBRANCH  43  68
ENDBRANCH  41  43
ENDBRANCH   1  39
BRANCH   1  72
ATOM     72  CB  ILE A   5      15.258  27.703  11.016  0.00  0.00    +0.027 C 
ATOM     73  CG2 ILE A   5      14.746  28.409   9.706  0.00  0.00    +0.002 C 
BRANCH  72  74
ATOM     74  CG1 ILE A   5      15.738  26.263  10.800  0.00  0.00    +0.002 C 
ATOM     75  CD1 ILE A   5      14.667  25.412  10.489  0.00  0.00    +0.000 C 
ENDBRANCH  72  74
ENDBRANCH   1  72
TORSDOF 28
REMARK  Name = ../refined-set-2016/1ajx/1ajx_pocket.pdb
REMARK  205 active torsions:
REMARK  status: ('A' for Active; 'I' for Inactive)
REMARK    1  A    between atoms: _1  and  _3
REMARK    2  A    between atoms: _3  and  _4
REMARK    3  A    between atoms: _3  and  _6
REMARK    4  A    between atoms: _6  and  _7
REMARK    5  A    between atoms: _7  and  _8
REMARK    6  A    between atoms: _8  and  _9
REMARK    7  A    between atoms: _18  and  _20
REMARK    8  A    between atoms: _20  and  _21
REMARK    9  A    between atoms: _20  and  _23
REMARK   10  A    between atoms: _23  and  _24
REMARK   11  A    between atoms: _27  and  _29
REMARK   12  A    between atoms: _29  and  _30
REMARK   13  A    between atoms: _29  and  _32
REMARK   14  A    between atoms: _32  and  _33
REMARK   15  A    between atoms: _36  and  _38
REMARK   16  A    between atoms: _38  and  _39
REMARK   17  A    between atoms: _38  and  _41
REMARK   18  A    between atoms: _41  and  _42
REMARK   19  A    between atoms: _45  and  _47
REMARK   20  A    between atoms: _47  and  _48
REMARK   21  A    between atoms: _47  and  _50
REMARK   22  A    between atoms: _50  and  _51
REMARK   23  A    between atoms: _54  and  _56
REMARK   24  A    between atoms: _56  and  _57
REMARK   25  A    between atoms: _59  and  _61
REMARK   26  A    between atoms: _61  and  _62
REMARK   27  A    between atoms: _65  and  _67
REMARK   28  A    between atoms: _67  and  _68
REMARK   29  A    between atoms: _67  and  _70
REMARK   30  A    between atoms: _70  and  _71
REMARK   31  A    between atoms: _74  and  _76
REMARK   32  A    between atoms: _76  and  _77
REMARK   33  A    between atoms: _76  and  _79
REMARK   34  A    between atoms: _79  and  _80
REMARK   35  A    between atoms: _83  and  _85
REMARK   36  A    between atoms: _85  and  _86
REMARK   37  A    between atoms: _85  and  _88
REMARK   38  A    between atoms: _88  and  _89
REMARK   39  A    between atoms: _92  and  _94
REMARK   40  A    between atoms: _94  and  _95
REMARK   41  A    between atoms: _94  and  _97
REMARK   42  A    between atoms: _100  and  _102
REMARK   43  A    between atoms: _102  and  _103
REMARK   44  A    between atoms: _102  and  _105
REMARK   45  A    between atoms: _105  and  _106
REMARK   46  A    between atoms: _109  and  _111
REMARK   47  A    between atoms: _111  and  _112
REMARK   48  A    between atoms: _114  and  _116
REMARK   49  A    between atoms: _116  and  _117
REMARK   50  A    between atoms: _119  and  _121
REMARK   51  A    between atoms: _121  and  _122
REMARK   52  A    between atoms: _121  and  _124
REMARK   53  A    between atoms: _124  and  _125
REMARK   54  A    between atoms: _128  and  _130
REMARK   55  A    between atoms: _130  and  _131
REMARK   56  A    between atoms: _133  and  _135
REMARK   57  A    between atoms: _135  and  _136
REMARK   58  A    between atoms: _138  and  _140
REMARK   59  A    between atoms: _140  and  _141
REMARK   60  A    between atoms: _140  and  _143
REMARK   61  A    between atoms: _143  and  _144
REMARK   62  A    between atoms: _147  and  _149
REMARK   63  A    between atoms: _149  and  _150
REMARK   64  A    between atoms: _149  and  _152
REMARK   65  A    between atoms: _152  and  _153
REMARK   66  A    between atoms: _156  and  _158
REMARK   67  A    between atoms: _158  and  _159
REMARK   68  A    between atoms: _158  and  _161
REMARK   69  A    between atoms: _161  and  _162
REMARK   70  A    between atoms: _166  and  _167
REMARK   71  A    between atoms: _172  and  _174
REMARK   72  A    between atoms: _174  and  _175
REMARK   73  A    between atoms: _174  and  _177
REMARK   74  A    between atoms: _180  and  _182
REMARK   75  A    between atoms: _182  and  _183
REMARK   76  A    between atoms: _182  and  _185
REMARK   77  A    between atoms: _185  and  _186
REMARK   78  A    between atoms: _191  and  _193
REMARK   79  A    between atoms: _193  and  _194
REMARK   80  A    between atoms: _193  and  _196
REMARK   81  A    between atoms: _196  and  _197
REMARK   82  A    between atoms: _200  and  _202
REMARK   83  A    between atoms: _202  and  _203
REMARK   84  A    between atoms: _202  and  _205
REMARK   85  A    between atoms: _205  and  _206
REMARK   86  A    between atoms: _209  and  _211
REMARK   87  A    between atoms: _211  and  _212
REMARK   88  A    between atoms: _214  and  _216
REMARK   89  A    between atoms: _216  and  _217
REMARK   90  A    between atoms: _216  and  _219
REMARK   91  A    between atoms: _219  and  _220
REMARK   92  A    between atoms: _220  and  _221
REMARK   93  A    between atoms: _221  and  _222
REMARK   94  A    between atoms: _231  and  _233
REMARK   95  A    between atoms: _233  and  _234
REMARK   96  A    between atoms: _233  and  _236
REMARK   97  A    between atoms: _236  and  _237
REMARK   98  A    between atoms: _237  and  _238
REMARK   99  A    between atoms: _238  and  _239
REMARK  100  A    between atoms: _248  and  _250
REMARK  101  A    between atoms: _250  and  _251
REMARK  102  A    between atoms: _250  and  _253
REMARK  103  A    between atoms: _253  and  _254
REMARK  104  A    between atoms: _257  and  _259
REMARK  105  A    between atoms: _259  and  _260
REMARK  106  A    between atoms: _259  and  _262
REMARK  107  A    between atoms: _262  and  _263
REMARK  108  A    between atoms: _266  and  _268
REMARK  109  A    between atoms: _268  and  _269
REMARK  110  A    between atoms: _268  and  _271
REMARK  111  A    between atoms: _271  and  _272
REMARK  112  A    between atoms: _275  and  _277
REMARK  113  A    between atoms: _277  and  _278
REMARK  114  A    between atoms: _277  and  _280
REMARK  115  A    between atoms: _280  and  _281
REMARK  116  A    between atoms: _284  and  _286
REMARK  117  A    between atoms: _286  and  _287
REMARK  118  A    between atoms: _286  and  _289
REMARK  119  A    between atoms: _289  and  _290
REMARK  120  A    between atoms: _293  and  _295
REMARK  121  A    between atoms: _295  and  _296
REMARK  122  A    between atoms: _298  and  _300
REMARK  123  A    between atoms: _300  and  _301
REMARK  124  A    between atoms: _304  and  _306
REMARK  125  A    between atoms: _306  and  _307
REMARK  126  A    between atoms: _306  and  _309
REMARK  127  A    between atoms: _309  and  _310
REMARK  128  A    between atoms: _313  and  _315
REMARK  129  A    between atoms: _315  and  _316
REMARK  130  A    between atoms: _315  and  _318
REMARK  131  A    between atoms: _318  and  _319
REMARK  132  A    between atoms: _322  and  _324
REMARK  133  A    between atoms: _324  and  _325
REMARK  134  A    between atoms: _324  and  _327
REMARK  135  A    between atoms: _327  and  _328
REMARK  136  A    between atoms: _331  and  _333
REMARK  137  A    between atoms: _333  and  _334
REMARK  138  A    between atoms: _333  and  _336
REMARK  139  A    between atoms: _339  and  _341
REMARK  140  A    between atoms: _341  and  _342
REMARK  141  A    between atoms: _341  and  _344
REMARK  142  A    between atoms: _344  and  _345
REMARK  143  A    between atoms: _348  and  _350
REMARK  144  A    between atoms: _350  and  _351
REMARK  145  A    between atoms: _350  and  _353
REMARK  146  A    between atoms: _353  and  _354
REMARK  147  A    between atoms: _354  and  _355
REMARK  148  A    between atoms: _355  and  _356
REMARK  149  A    between atoms: _356  and  _357
REMARK  150  A    between atoms: _361  and  _363
REMARK  151  A    between atoms: _363  and  _364
REMARK  152  A    between atoms: _363  and  _366
REMARK  153  A    between atoms: _366  and  _367
REMARK  154  A    between atoms: _370  and  _372
REMARK  155  A    between atoms: _372  and  _373
REMARK  156  A    between atoms: _375  and  _377
REMARK  157  A    between atoms: _377  and  _378
REMARK  158  A    between atoms: _380  and  _382
REMARK  159  A    between atoms: _382  and  _383
REMARK  160  A    between atoms: _382  and  _385
REMARK  161  A    between atoms: _385  and  _386
REMARK  162  A    between atoms: _389  and  _391
REMARK  163  A    between atoms: _391  and  _392
REMARK  164  A    between atoms: _394  and  _396
REMARK  165  A    between atoms: _396  and  _397
REMARK  166  A    between atoms: _399  and  _401
REMARK  167  A    between atoms: _401  and  _402
REMARK  168  A    between atoms: _401  and  _404
REMARK  169  A    between atoms: _404  and  _405
REMARK  170  A    between atoms: _411  and  _413
REMARK  171  A    between atoms: _413  and  _414
REMARK  172  A    between atoms: _413  and  _416
REMARK  173  A    between atoms: _416  and  _417
REMARK  174  A    between atoms: _420  and  _422
REMARK  175  A    between atoms: _422  and  _423
REMARK  176  A    between atoms: _422  and  _425
REMARK  177  A    between atoms: _425  and  _426
REMARK  178  A    between atoms: _429  and  _431
REMARK  179  A    between atoms: _431  and  _432
REMARK  180  A    between atoms: _431  and  _434
REMARK  181  A    between atoms: _434  and  _435
REMARK  182  A    between atoms: _439  and  _440
REMARK  183  A    between atoms: _445  and  _447
REMARK  184  A    between atoms: _447  and  _448
REMARK  185  A    between atoms: _447  and  _450
REMARK  186  A    between atoms: _453  and  _455
REMARK  187  A    between atoms: _455  and  _456
REMARK  188  A    between atoms: _455  and  _458
REMARK  189  A    between atoms: _458  and  _459
REMARK  190  A    between atoms: _464  and  _466
REMARK  191  A    between atoms: _466  and  _467
REMARK  192  A    between atoms: _466  and  _469
REMARK  193  A    between atoms: _469  and  _470
REMARK  194  A    between atoms: _473  and  _475
REMARK  195  A    between atoms: _475  and  _476
REMARK  196  A    between atoms: _475  and  _478
REMARK  197  A    between atoms: _478  and  _479
REMARK  198  A    between atoms: _482  and  _484
REMARK  199  A    between atoms: _484  and  _485
REMARK  200  A    between atoms: _487  and  _489
REMARK  201  A    between atoms: _489  and  _490
REMARK  202  A    between atoms: _489  and  _492
REMARK  203  A    between atoms: _492  and  _493
REMARK  204  A    between atoms: _493  and  _494
REMARK  205  A    between atoms: _494  and  _495
REMARK                            x       y       z     vdW  Elec       q    Type
REMARK                         _______ _______ _______ _____ _____    ______ ____
ROOT
ATOM      1  NE  ARG A   1       6.898  30.505   0.286  0.00  0.00    -0.265 N 
ATOM      2  HE  ARG A   1       6.889  31.209   1.051  0.00  0.00    +0.259 HD
ATOM      3  CZ  ARG A   1       6.310  29.321   0.507  0.00  0.00    +0.342 C 
ATOM      4  NH2 ARG A   1       5.759  29.037   1.692  0.00  0.00    -0.292 N 
ATOM      5 HH21 ARG A   1       5.783  29.740   2.458  0.00  0.00    +0.255 HD
ATOM      6 HH22 ARG A   1       5.307  28.113   1.847  0.00  0.00    +0.255 HD
ATOM      7  NH1 ARG A   1       6.289  28.384  -0.454  0.00  0.00    -0.292 N 
ATOM      8 HH11 ARG A   1       5.831  27.467  -0.276  0.00  0.00    +0.255 HD
ATOM      9 HH12 ARG A   1       6.731  28.575  -1.376  0.00  0.00    +0.255 HD
ENDROOT
BRANCH   1  10
ATOM     10  CD  ARG A   1       7.550  30.860  -0.969  0.00  0.00    +0.174 C 
BRANCH  10  11
ATOM     11  CG  ARG A   1       8.630  31.829  -0.703  0.00  0.00    +0.045 C 
BRANCH  11  12
ATOM     12  CB  ARG A   1       9.286  32.240  -1.946  0.00  0.00    +0.029 C 
BRANCH  12  13
ATOM     13  CA  ARG A   1      10.184  33.466  -1.716  0.00  0.00    +0.133 C 
BRANCH  13  14
ATOM     14  N   ARG A   1       9.421  34.775  -1.733  0.00  0.00    -0.239 NA
ATOM     15  H   ARG A   1       8.397  34.779  -1.915  0.00  0.00    +0.142 HD
ENDBRANCH  13  14
BRANCH  13  16
ATOM     16  C   ARG A   1      11.085  33.488  -2.862  0.00  0.00    +0.224 C 
ATOM     17  O   ARG A   1      10.649  33.930  -3.904  0.00  0.00    -0.287 OA
ENDBRANCH  13  16
ENDBRANCH  12  13
ENDBRANCH  11  12
ENDBRANCH  10  11
ENDBRANCH   1  10
TORSDOF 6
REMARK  Name = ../refined-set-2016/1ajx/1ajx_pocket.pdb
REMARK  205 active torsions:
REMARK  status: ('A' for Active; 'I' for Inactive)
REMARK    1  A    between atoms: _1  and  _3
REMARK    2  A    between atoms: _3  and  _4
REMARK    3  A    between atoms: _3  and  _6
REMARK    4  A    between atoms: _6  and  _7
REMARK    5  A    between atoms: _7  and  _8
REMARK    6  A    between atoms: _8  and  _9
REMARK    7  A    between atoms: _18  and  _20
REMARK    8  A    between atoms: _20  and  _21
REMARK    9  A    between atoms: _20  and  _23
REMARK   10  A    between atoms: _23  and  _24
REMARK   11  A    between atoms: _27  and  _29
REMARK   12  A    between atoms: _29  and  _30
REMARK   13  A    between atoms: _29  and  _32
REMARK   14  A    between atoms: _32  and  _33
REMARK   15  A    between atoms: _36  and  _38
REMARK   16  A    between atoms: _38  and  _39
REMARK   17  A    between atoms: _38  and  _41
REMARK   18  A    between atoms: _41  and  _42
REMARK   19  A    between atoms: _45  and  _47
REMARK   20  A    between atoms: _47  and  _48
REMARK   21  A    between atoms: _47  and  _50
REMARK   22  A    between atoms: _50  and  _51
REMARK   23  A    between atoms: _54  and  _56
REMARK   24  A    between atoms: _56  and  _57
REMARK   25  A    between atoms: _59  and  _61
REMARK   26  A    between atoms: _61  and  _62
REMARK   27  A    between atoms: _65  and  _67
REMARK   28  A    between atoms: _67  and  _68
REMARK   29  A    between atoms: _67  and  _70
REMARK   30  A    between atoms: _70  and  _71
REMARK   31  A    between atoms: _74  and  _76
REMARK   32  A    between atoms: _76  and  _77
REMARK   33  A    between atoms: _76  and  _79
REMARK   34  A    between atoms: _79  and  _80
REMARK   35  A    between atoms: _83  and  _85
REMARK   36  A    between atoms: _85  and  _86
REMARK   37  A    between atoms: _85  and  _88
REMARK   38  A    between atoms: _88  and  _89
REMARK   39  A    between atoms: _92  and  _94
REMARK   40  A    between atoms: _94  and  _95
REMARK   41  A    between atoms: _94  and  _97
REMARK   42  A    between atoms: _100  and  _102
REMARK   43  A    between atoms: _102  and  _103
REMARK   44  A    between atoms: _102  and  _105
REMARK   45  A    between atoms: _105  and  _106
REMARK   46  A    between atoms: _109  and  _111
REMARK   47  A    between atoms: _111  and  _112
REMARK   48  A    between atoms: _114  and  _116
REMARK   49  A    between atoms: _116  and  _117
REMARK   50  A    between atoms: _119  and  _121
REMARK   51  A    between atoms: _121  and  _122
REMARK   52  A    between atoms: _121  and  _124
REMARK   53  A    between atoms: _124  and  _125
REMARK   54  A    between atoms: _128  and  _130
REMARK   55  A    between atoms: _130  and  _131
REMARK   56  A    between atoms: _133  and  _135
REMARK   57  A    between atoms: _135  and  _136
REMARK   58  A    between atoms: _138  and  _140
REMARK   59  A    between atoms: _140  and  _141
REMARK   60  A    between atoms: _140  and  _143
REMARK   61  A    between atoms: _143  and  _144
REMARK   62  A    between atoms: _147  and  _149
REMARK   63  A    between atoms: _149  and  _150
REMARK   64  A    between atoms: _149  and  _152
REMARK   65  A    between atoms: _152  and  _153
REMARK   66  A    between atoms: _156  and  _158
REMARK   67  A    between atoms: _158  and  _159
REMARK   68  A    between atoms: _158  and  _161
REMARK   69  A    between atoms: _161  and  _162
REMARK   70  A    between atoms: _166  and  _167
REMARK   71  A    between atoms: _172  and  _174
REMARK   72  A    between atoms: _174  and  _175
REMARK   73  A    between atoms: _174  and  _177
REMARK   74  A    between atoms: _180  and  _182
REMARK   75  A    between atoms: _182  and  _183
REMARK   76  A    between atoms: _182  and  _185
REMARK   77  A    between atoms: _185  and  _186
REMARK   78  A    between atoms: _191  and  _193
REMARK   79  A    between atoms: _193  and  _194
REMARK   80  A    between atoms: _193  and  _196
REMARK   81  A    between atoms: _196  and  _197
REMARK   82  A    between atoms: _200  and  _202
REMARK   83  A    between atoms: _202  and  _203
REMARK   84  A    between atoms: _202  and  _205
REMARK   85  A    between atoms: _205  and  _206
REMARK   86  A    between atoms: _209  and  _211
REMARK   87  A    between atoms: _211  and  _212
REMARK   88  A    between atoms: _214  and  _216
REMARK   89  A    between atoms: _216  and  _217
REMARK   90  A    between atoms: _216  and  _219
REMARK   91  A    between atoms: _219  and  _220
REMARK   92  A    between atoms: _220  and  _221
REMARK   93  A    between atoms: _221  and  _222
REMARK   94  A    between atoms: _231  and  _233
REMARK   95  A    between atoms: _233  and  _234
REMARK   96  A    between atoms: _233  and  _236
REMARK   97  A    between atoms: _236  and  _237
REMARK   98  A    between atoms: _237  and  _238
REMARK   99  A    between atoms: _238  and  _239
REMARK  100  A    between atoms: _248  and  _250
REMARK  101  A    between atoms: _250  and  _251
REMARK  102  A    between atoms: _250  and  _253
REMARK  103  A    between atoms: _253  and  _254
REMARK  104  A    between atoms: _257  and  _259
REMARK  105  A    between atoms: _259  and  _260
REMARK  106  A    between atoms: _259  and  _262
REMARK  107  A    between atoms: _262  and  _263
REMARK  108  A    between atoms: _266  and  _268
REMARK  109  A    between atoms: _268  and  _269
REMARK  110  A    between atoms: _268  and  _271
REMARK  111  A    between atoms: _271  and  _272
REMARK  112  A    between atoms: _275  and  _277
REMARK  113  A    between atoms: _277  and  _278
REMARK  114  A    between atoms: _277  and  _280
REMARK  115  A    between atoms: _280  and  _281
REMARK  116  A    between atoms: _284  and  _286
REMARK  117  A    between atoms: _286  and  _287
REMARK  118  A    between atoms: _286  and  _289
REMARK  119  A    between atoms: _289  and  _290
REMARK  120  A    between atoms: _293  and  _295
REMARK  121  A    between atoms: _295  and  _296
REMARK  122  A    between atoms: _298  and  _300
REMARK  123  A    between atoms: _300  and  _301
REMARK  124  A    between atoms: _304  and  _306
REMARK  125  A    between atoms: _306  and  _307
REMARK  126  A    between atoms: _306  and  _309
REMARK  127  A    between atoms: _309  and  _310
REMARK  128  A    between atoms: _313  and  _315
REMARK  129  A    between atoms: _315  and  _316
REMARK  130  A    between atoms: _315  and  _318
REMARK  131  A    between atoms: _318  and  _319
REMARK  132  A    between atoms: _322  and  _324
REMARK  133  A    between atoms: _324  and  _325
REMARK  134  A    between atoms: _324  and  _327
REMARK  135  A    between atoms: _327  and  _328
REMARK  136  A    between atoms: _331  and  _333
REMARK  137  A    between atoms: _333  and  _334
REMARK  138  A    between atoms: _333  and  _336
REMARK  139  A    between atoms: _339  and  _341
REMARK  140  A    between atoms: _341  and  _342
REMARK  141  A    between atoms: _341  and  _344
REMARK  142  A    between atoms: _344  and  _345
REMARK  143  A    between atoms: _348  and  _350
REMARK  144  A    between atoms: _350  and  _351
REMARK  145  A    between atoms: _350  and  _353
REMARK  146  A    between atoms: _353  and  _354
REMARK  147  A    between atoms: _354  and  _355
REMARK  148  A    between atoms: _355  and  _356
REMARK  149  A    between atoms: _356  and  _357
REMARK  150  A    between atoms: _361  and  _363
REMARK  151  A    between atoms: _363  and  _364
REMARK  152  A    between atoms: _363  and  _366
REMARK  153  A    between atoms: _366  and  _367
REMARK  154  A    between atoms: _370  and  _372
REMARK  155  A    between atoms: _372  and  _373
REMARK  156  A    between atoms: _375  and  _377
REMARK  157  A    between atoms: _377  and  _378
REMARK  158  A    between atoms: _380  and  _382
REMARK  159  A    between atoms: _382  and  _383
REMARK  160  A    between atoms: _382  and  _385
REMARK  161  A    between atoms: _385  and  _386
REMARK  162  A    between atoms: _389  and  _391
REMARK  163  A    between atoms: _391  and  _392
REMARK  164  A    between atoms: _394  and  _396
REMARK  165  A    between atoms: _396  and  _397
REMARK  166  A    between atoms: _399  and  _401
REMARK  167  A    between atoms: _401  and  _402
REMARK  168  A    between atoms: _401  and  _404
REMARK  169  A    between atoms: _404  and  _405
REMARK  170  A    between atoms: _411  and  _413
REMARK  171  A    between atoms: _413  and  _414
REMARK  172  A    between atoms: _413  and  _416
REMARK  173  A    between atoms: _416  and  _417
REMARK  174  A    between atoms: _420  and  _422
REMARK  175  A    between atoms: _422  and  _423
REMARK  176  A    between atoms: _422  and  _425
REMARK  177  A    between atoms: _425  and  _426
REMARK  178  A    between atoms: _429  and  _431
REMARK  179  A    between atoms: _431  and  _432
REMARK  180  A    between atoms: _431  and  _434
REMARK  181  A    between atoms: _434  and  _435
REMARK  182  A    between atoms: _439  and  _440
REMARK  183  A    between atoms: _445  and  _447
REMARK  184  A    between atoms: _447  and  _448
REMARK  185  A    between atoms: _447  and  _450
REMARK  186  A    between atoms: _453  and  _455
REMARK  187  A    between atoms: _455  and  _456
REMARK  188  A    between atoms: _455  and  _458
REMARK  189  A    between atoms: _458  and  _459
REMARK  190  A    between atoms: _464  and  _466
REMARK  191  A    between atoms: _466  and  _467
REMARK  192  A    between atoms: _466  and  _469
REMARK  193  A    between atoms: _469  and  _470
REMARK  194  A    between atoms: _473  and  _475
REMARK  195  A    between atoms: _475  and  _476
REMARK  196  A    between atoms: _475  and  _478
REMARK  197  A    between atoms: _478  and  _479
REMARK  198  A    between atoms: _482  and  _484
REMARK  199  A    between atoms: _484  and  _485
REMARK  200  A    between atoms: _487  and  _489
REMARK  201  A    between atoms: _489  and  _490
REMARK  202  A    between atoms: _489  and  _492
REMARK  203  A    between atoms: _492  and  _493
REMARK  204  A    between atoms: _493  and  _494
REMARK  205  A    between atoms: _494  and  _495
REMARK                            x       y       z     vdW  Elec       q    Type
REMARK                         _______ _______ _______ _____ _____    ______ ____
ROOT
ATOM      1  CA  LEU A   1      11.490  30.979  -6.578  0.00  0.00    +0.133 C 
ENDROOT
BRANCH   1   2
ATOM      2  N   LEU A   1      11.935  31.937  -5.541  0.00  0.00    -0.239 NA
ATOM      3  H   LEU A   1      11.310  32.745  -5.346  0.00  0.00    +0.142 HD
ENDBRANCH   1   2
BRANCH   1   4
ATOM      4  C   LEU A   1      12.109  31.249  -7.933  0.00  0.00    +0.224 C 
ATOM      5  O   LEU A   1      12.222  32.408  -8.328  0.00  0.00    -0.287 OA
ENDBRANCH   1   4
BRANCH   1   6
ATOM      6  CB  LEU A   1       9.979  30.982  -6.699  0.00  0.00    +0.025 C 
BRANCH   6   7
ATOM      7  CG  LEU A   1       9.312  30.390  -5.514  0.00  0.00    +0.002 C 
ATOM      8  CD2 LEU A   1       9.400  28.865  -5.572  0.00  0.00    +0.000 C 
ATOM      9  CD1 LEU A   1       7.930  30.849  -5.582  0.00  0.00    +0.000 C 
ENDBRANCH   6   7
ENDBRANCH   1   6
TORSDOF 4
REMARK  Name = ../refined-set-2016/1ajx/1ajx_pocket.pdb
REMARK  205 active torsions:
REMARK  status: ('A' for Active; 'I' for Inactive)
REMARK    1  A    between atoms: _1  and  _3
REMARK    2  A    between atoms: _3  and  _4
REMARK    3  A    between atoms: _3  and  _6
REMARK    4  A    between atoms: _6  and  _7
REMARK    5  A    between atoms: _7  and  _8
REMARK    6  A    between atoms: _8  and  _9
REMARK    7  A    between atoms: _18  and  _20
REMARK    8  A    between atoms: _20  and  _21
REMARK    9  A    between atoms: _20  and  _23
REMARK   10  A    between atoms: _23  and  _24
REMARK   11  A    between atoms: _27  and  _29
REMARK   12  A    between atoms: _29  and  _30
REMARK   13  A    between atoms: _29  and  _32
REMARK   14  A    between atoms: _32  and  _33
REMARK   15  A    between atoms: _36  and  _38
REMARK   16  A    between atoms: _38  and  _39
REMARK   17  A    between atoms: _38  and  _41
REMARK   18  A    between atoms: _41  and  _42
REMARK   19  A    between atoms: _45  and  _47
REMARK   20  A    between atoms: _47  and  _48
REMARK   21  A    between atoms: _47  and  _50
REMARK   22  A    between atoms: _50  and  _51
REMARK   23  A    between atoms: _54  and  _56
REMARK   24  A    between atoms: _56  and  _57
REMARK   25  A    between atoms: _59  and  _61
REMARK   26  A    between atoms: _61  and  _62
REMARK   27  A    between atoms: _65  and  _67
REMARK   28  A    between atoms: _67  and  _68
REMARK   29  A    between atoms: _67  and  _70
REMARK   30  A    between atoms: _70  and  _71
REMARK   31  A    between atoms: _74  and  _76
REMARK   32  A    between atoms: _76  and  _77
REMARK   33  A    between atoms: _76  and  _79
REMARK   34  A    between atoms: _79  and  _80
REMARK   35  A    between atoms: _83  and  _85
REMARK   36  A    between atoms: _85  and  _86
REMARK   37  A    between atoms: _85  and  _88
REMARK   38  A    between atoms: _88  and  _89
REMARK   39  A    between atoms: _92  and  _94
REMARK   40  A    between atoms: _94  and  _95
REMARK   41  A    between atoms: _94  and  _97
REMARK   42  A    between atoms: _100  and  _102
REMARK   43  A    between atoms: _102  and  _103
REMARK   44  A    between atoms: _102  and  _105
REMARK   45  A    between atoms: _105  and  _106
REMARK   46  A    between atoms: _109  and  _111
REMARK   47  A    between atoms: _111  and  _112
REMARK   48  A    between atoms: _114  and  _116
REMARK   49  A    between atoms: _116  and  _117
REMARK   50  A    between atoms: _119  and  _121
REMARK   51  A    between atoms: _121  and  _122
REMARK   52  A    between atoms: _121  and  _124
REMARK   53  A    between atoms: _124  and  _125
REMARK   54  A    between atoms: _128  and  _130
REMARK   55  A    between atoms: _130  and  _131
REMARK   56  A    between atoms: _133  and  _135
REMARK   57  A    between atoms: _135  and  _136
REMARK   58  A    between atoms: _138  and  _140
REMARK   59  A    between atoms: _140  and  _141
REMARK   60  A    between atoms: _140  and  _143
REMARK   61  A    between atoms: _143  and  _144
REMARK   62  A    between atoms: _147  and  _149
REMARK   63  A    between atoms: _149  and  _150
REMARK   64  A    between atoms: _149  and  _152
REMARK   65  A    between atoms: _152  and  _153
REMARK   66  A    between atoms: _156  and  _158
REMARK   67  A    between atoms: _158  and  _159
REMARK   68  A    between atoms: _158  and  _161
REMARK   69  A    between atoms: _161  and  _162
REMARK   70  A    between atoms: _166  and  _167
REMARK   71  A    between atoms: _172  and  _174
REMARK   72  A    between atoms: _174  and  _175
REMARK   73  A    between atoms: _174  and  _177
REMARK   74  A    between atoms: _180  and  _182
REMARK   75  A    between atoms: _182  and  _183
REMARK   76  A    between atoms: _182  and  _185
REMARK   77  A    between atoms: _185  and  _186
REMARK   78  A    between atoms: _191  and  _193
REMARK   79  A    between atoms: _193  and  _194
REMARK   80  A    between atoms: _193  and  _196
REMARK   81  A    between atoms: _196  and  _197
REMARK   82  A    between atoms: _200  and  _202
REMARK   83  A    between atoms: _202  and  _203
REMARK   84  A    between atoms: _202  and  _205
REMARK   85  A    between atoms: _205  and  _206
REMARK   86  A    between atoms: _209  and  _211
REMARK   87  A    between atoms: _211  and  _212
REMARK   88  A    between atoms: _214  and  _216
REMARK   89  A    between atoms: _216  and  _217
REMARK   90  A    between atoms: _216  and  _219
REMARK   91  A    between atoms: _219  and  _220
REMARK   92  A    between atoms: _220  and  _221
REMARK   93  A    between atoms: _221  and  _222
REMARK   94  A    between atoms: _231  and  _233
REMARK   95  A    between atoms: _233  and  _234
REMARK   96  A    between atoms: _233  and  _236
REMARK   97  A    between atoms: _236  and  _237
REMARK   98  A    between atoms: _237  and  _238
REMARK   99  A    between atoms: _238  and  _239
REMARK  100  A    between atoms: _248  and  _250
REMARK  101  A    between atoms: _250  and  _251
REMARK  102  A    between atoms: _250  and  _253
REMARK  103  A    between atoms: _253  and  _254
REMARK  104  A    between atoms: _257  and  _259
REMARK  105  A    between atoms: _259  and  _260
REMARK  106  A    between atoms: _259  and  _262
REMARK  107  A    between atoms: _262  and  _263
REMARK  108  A    between atoms: _266  and  _268
REMARK  109  A    between atoms: _268  and  _269
REMARK  110  A    between atoms: _268  and  _271
REMARK  111  A    between atoms: _271  and  _272
REMARK  112  A    between atoms: _275  and  _277
REMARK  113  A    between atoms: _277  and  _278
REMARK  114  A    between atoms: _277  and  _280
REMARK  115  A    between atoms: _280  and  _281
REMARK  116  A    between atoms: _284  and  _286
REMARK  117  A    between atoms: _286  and  _287
REMARK  118  A    between atoms: _286  and  _289
REMARK  119  A    between atoms: _289  and  _290
REMARK  120  A    between atoms: _293  and  _295
REMARK  121  A    between atoms: _295  and  _296
REMARK  122  A    between atoms: _298  and  _300
REMARK  123  A    between atoms: _300  and  _301
REMARK  124  A    between atoms: _304  and  _306
REMARK  125  A    between atoms: _306  and  _307
REMARK  126  A    between atoms: _306  and  _309
REMARK  127  A    between atoms: _309  and  _310
REMARK  128  A    between atoms: _313  and  _315
REMARK  129  A    between atoms: _315  and  _316
REMARK  130  A    between atoms: _315  and  _318
REMARK  131  A    between atoms: _318  and  _319
REMARK  132  A    between atoms: _322  and  _324
REMARK  133  A    between atoms: _324  and  _325
REMARK  134  A    between atoms: _324  and  _327
REMARK  135  A    between atoms: _327  and  _328
REMARK  136  A    between atoms: _331  and  _333
REMARK  137  A    between atoms: _333  and  _334
REMARK  138  A    between atoms: _333  and  _336
REMARK  139  A    between atoms: _339  and  _341
REMARK  140  A    between atoms: _341  and  _342
REMARK  141  A    between atoms: _341  and  _344
REMARK  142  A    between atoms: _344  and  _345
REMARK  143  A    between atoms: _348  and  _350
REMARK  144  A    between atoms: _350  and  _351
REMARK  145  A    between atoms: _350  and  _353
REMARK  146  A    between atoms: _353  and  _354
REMARK  147  A    between atoms: _354  and  _355
REMARK  148  A    between atoms: _355  and  _356
REMARK  149  A    between atoms: _356  and  _357
REMARK  150  A    between atoms: _361  and  _363
REMARK  151  A    between atoms: _363  and  _364
REMARK  152  A    between atoms: _363  and  _366
REMARK  153  A    between atoms: _366  and  _367
REMARK  154  A    between atoms: _370  and  _372
REMARK  155  A    between atoms: _372  and  _373
REMARK  156  A    between atoms: _375  and  _377
REMARK  157  A    between atoms: _377  and  _378
REMARK  158  A    between atoms: _380  and  _382
REMARK  159  A    between atoms: _382  and  _383
REMARK  160  A    between atoms: _382  and  _385
REMARK  161  A    between atoms: _385  and  _386
REMARK  162  A    between atoms: _389  and  _391
REMARK  163  A    between atoms: _391  and  _392
REMARK  164  A    between atoms: _394  and  _396
REMARK  165  A    between atoms: _396  and  _397
REMARK  166  A    between atoms: _399  and  _401
REMARK  167  A    between atoms: _401  and  _402
REMARK  168  A    between atoms: _401  and  _404
REMARK  169  A    between atoms: _404  and  _405
REMARK  170  A    between atoms: _411  and  _413
REMARK  171  A    between atoms: _413  and  _414
REMARK  172  A    between atoms: _413  and  _416
REMARK  173  A    between atoms: _416  and  _417
REMARK  174  A    between atoms: _420  and  _422
REMARK  175  A    between atoms: _422  and  _423
REMARK  176  A    between atoms: _422  and  _425
REMARK  177  A    between atoms: _425  and  _426
REMARK  178  A    between atoms: _429  and  _431
REMARK  179  A    between atoms: _431  and  _432
REMARK  180  A    between atoms: _431  and  _434
REMARK  181  A    between atoms: _434  and  _435
REMARK  182  A    between atoms: _439  and  _440
REMARK  183  A    between atoms: _445  and  _447
REMARK  184  A    between atoms: _447  and  _448
REMARK  185  A    between atoms: _447  and  _450
REMARK  186  A    between atoms: _453  and  _455
REMARK  187  A    between atoms: _455  and  _456
REMARK  188  A    between atoms: _455  and  _458
REMARK  189  A    between atoms: _458  and  _459
REMARK  190  A    between atoms: _464  and  _466
REMARK  191  A    between atoms: _466  and  _467
REMARK  192  A    between atoms: _466  and  _469
REMARK  193  A    between atoms: _469  and  _470
REMARK  194  A    between atoms: _473  and  _475
REMARK  195  A    between atoms: _475  and  _476
REMARK  196  A    between atoms: _475  and  _478
REMARK  197  A    between atoms: _478  and  _479
REMARK  198  A    between atoms: _482  and  _484
REMARK  199  A    between atoms: _484  and  _485
REMARK  200  A    between atoms: _487  and  _489
REMARK  201  A    between atoms: _489  and  _490
REMARK  202  A    between atoms: _489  and  _492
REMARK  203  A    between atoms: _492  and  _493
REMARK  204  A    between atoms: _493  and  _494
REMARK  205  A    between atoms: _494  and  _495
REMARK                            x       y       z     vdW  Elec       q    Type
REMARK                         _______ _______ _______ _____ _____    ______ ____
ROOT
ATOM      1  C   ALA A   6      19.933  21.909   2.189  0.00  0.00    +0.241 C 
ATOM      2  N   ASP A   7      20.435  20.845   2.789  0.00  0.00    -0.297 N 
ATOM      3  H   ASP A   7      19.943  20.408   3.594  0.00  0.00    +0.150 HD
ATOM      4  O   ALA A   6      20.567  22.535   1.377  0.00  0.00    -0.273 OA
ENDROOT
BRANCH   1   5
ATOM      5  CA  ALA A   6      18.623  22.393   2.663  0.00  0.00    +0.149 C 
ATOM      6  CB  ALA A   6      17.592  22.304   1.530  0.00  0.00    +0.031 C 
BRANCH   5   9
ATOM      7  C   GLY A   5      18.918  24.108   4.416  0.00  0.00    +0.243 C 
ATOM      8  O   GLY A   5      18.991  23.274   5.323  0.00  0.00    -0.273 OA
ATOM      9  N   ALA A   6      18.706  23.774   3.148  0.00  0.00    -0.297 N 
ATOM     10  H   ALA A   6      18.592  24.541   2.455  0.00  0.00    +0.150 HD
BRANCH   7  11
ATOM     11  CA  GLY A   5      18.916  25.638   4.748  0.00  0.00    +0.176 C 
BRANCH  11  14
ATOM     12  C   THR A   4      20.217  26.723   3.039  0.00  0.00    +0.243 C 
ATOM     13  O   THR A   4      21.263  26.247   3.565  0.00  0.00    -0.273 OA
ATOM     14  N   GLY A   5      18.991  26.484   3.551  0.00  0.00    -0.295 N 
ATOM     15  H   GLY A   5      18.135  26.883   3.115  0.00  0.00    +0.150 HD
BRANCH  12  16
ATOM     16  CA  THR A   4      20.321  27.611   1.754  0.00  0.00    +0.176 C 
BRANCH  16  18
ATOM     17  C   ASP A   3      18.467  26.739   0.486  0.00  0.00    +0.241 C 
ATOM     18  N   THR A   4      19.017  27.740   1.154  0.00  0.00    -0.295 N 
ATOM     19  H   THR A   4      18.499  28.637   1.248  0.00  0.00    +0.150 HD
ATOM     20  O   ASP A   3      18.967  25.618   0.438  0.00  0.00    -0.273 OA
BRANCH  17  21
ATOM     21  CA  ASP A   3      17.102  27.050  -0.109  0.00  0.00    +0.160 C 
BRANCH  21  24
ATOM     22  C   LEU A   2      16.665  28.361  -2.065  0.00  0.00    +0.241 C 
ATOM     23  O   LEU A   2      16.368  29.335  -1.422  0.00  0.00    -0.273 OA
ATOM     24  N   ASP A   3      17.180  27.294  -1.507  0.00  0.00    -0.297 N 
ATOM     25  H   ASP A   3      17.665  26.599  -2.110  0.00  0.00    +0.150 HD
BRANCH  22  26
ATOM     26  CA  LEU A   2      16.652  28.385  -3.620  0.00  0.00    +0.149 C 
BRANCH  26  29
ATOM     27  C   LEU A   1      14.457  27.337  -3.946  0.00  0.00    +0.238 C 
ATOM     28  O   LEU A   1      14.941  26.227  -3.801  0.00  0.00    -0.274 OA
ATOM     29  N   LEU A   2      15.204  28.442  -3.929  0.00  0.00    -0.297 N 
ATOM     30  H   LEU A   2      14.762  29.360  -4.136  0.00  0.00    +0.150 HD
BRANCH  27  31
ATOM     31  CA  LEU A   1      12.986  27.442  -4.174  0.00  0.00    +0.145 C 
BRANCH  31  32
ATOM     32  N   LEU A   1      12.579  26.523  -5.210  0.00  0.00    -0.238 NA
ATOM     33  H   LEU A   1      12.480  25.520  -4.955  0.00  0.00    +0.142 HD
ENDBRANCH  31  32
BRANCH  31  34
ATOM     34  CB  LEU A   1      12.222  27.002  -2.943  0.00  0.00    +0.026 C 
BRANCH  34  35
ATOM     35  CG  LEU A   1      12.278  27.843  -1.732  0.00  0.00    +0.002 C 
ATOM     36  CD2 LEU A   1      11.434  27.169  -0.757  0.00  0.00    +0.000 C 
ATOM     37  CD1 LEU A   1      11.598  29.114  -2.053  0.00  0.00    +0.000 C 
ENDBRANCH  34  35
ENDBRANCH  31  34
ENDBRANCH  27  31
ENDBRANCH  26  29
BRANCH  26  38
ATOM     38  CB  LEU A   2      17.372  29.616  -4.189  0.00  0.00    +0.029 C 
BRANCH  38  39
ATOM     39  CG  LEU A   2      17.104  29.805  -5.694  0.00  0.00    +0.002 C 
ATOM     40  CD2 LEU A   2      17.708  31.182  -6.084  0.00  0.00    +0.000 C 
ATOM     41  CD1 LEU A   2      17.681  28.644  -6.558  0.00  0.00    +0.000 C 
ENDBRANCH  38  39
ENDBRANCH  26  38
ENDBRANCH  22  26
ENDBRANCH  21  24
BRANCH  21  42
ATOM     42  CB  ASP A   3      16.091  25.887   0.052  0.00  0.00    +0.143 C 
BRANCH  42  43
ATOM     43  CG  ASP A   3      15.732  25.583   1.492  0.00  0.00    +0.367 C 
ATOM     44  OD2 ASP A   3      16.450  25.968   2.442  0.00  0.00    -0.246 OA
ATOM     45  OD1 ASP A   3      14.695  24.980   1.640  0.00  0.00    -0.246 OA
ENDBRANCH  42  43
ENDBRANCH  21  42
ENDBRANCH  17  21
ENDBRANCH  16  18
BRANCH  16  46
ATOM     46  CB  THR A   4      20.904  29.039   2.172  0.00  0.00    +0.137 C 
ATOM     47  CG2 THR A   4      21.126  30.021   0.946  0.00  0.00    +0.034 C 
BRANCH  46  48
ATOM     48  OG1 THR A   4      20.037  29.626   3.139  0.00  0.00    -0.382 OA
ATOM     49  HG1 THR A   4      19.986  29.039   3.934  0.00  0.00    +0.210 HD
ENDBRANCH  46  48
ENDBRANCH  16  46
ENDBRANCH  12  16
ENDBRANCH  11  14
ENDBRANCH   7  11
ENDBRANCH   5   9
ENDBRANCH   1   5
BRANCH   2  50
ATOM     50  CA  ASP A   7      21.658  20.312   2.312  0.00  0.00    +0.160 C 
BRANCH  50  51
ATOM     51  C   ASP A   7      21.586  19.776   0.881  0.00  0.00    +0.241 C 
ATOM     52  N   ASP A   8      20.461  19.166   0.564  0.00  0.00    -0.297 N 
ATOM     53  H   ASP A   8      19.694  19.179   1.267  0.00  0.00    +0.150 HD
ATOM     54  O   ASP A   7      22.533  19.874   0.120  0.00  0.00    -0.273 OA
BRANCH  52  55
ATOM     55  CA  ASP A   8      20.208  18.477  -0.689  0.00  0.00    +0.160 C 
BRANCH  55  56
ATOM     56  C   ASP A   8      19.057  19.113  -1.444  0.00  0.00    +0.241 C 
ATOM     57  O   ASP A   8      18.212  19.876  -0.857  0.00  0.00    -0.273 OA
ATOM     58  N   THR A   9      18.949  18.678  -2.717  0.00  0.00    -0.295 N 
ATOM     59  H   THR A   9      19.658  17.994  -3.050  0.00  0.00    +0.150 HD
BRANCH  58  60
ATOM     60  CA  THR A   9      17.926  19.087  -3.656  0.00  0.00    +0.176 C 
BRANCH  60  61
ATOM     61  C   THR A   9      16.821  18.015  -3.683  0.00  0.00    +0.243 C 
ATOM     62  N   VAL A  10      15.587  18.426  -3.411  0.00  0.00    -0.297 N 
ATOM     63  H   VAL A  10      15.424  19.431  -3.197  0.00  0.00    +0.150 HD
ATOM     64  O   THR A   9      17.075  16.839  -3.929  0.00  0.00    -0.273 OA
BRANCH  62  65
ATOM     65  CA  VAL A  10      14.459  17.509  -3.404  0.00  0.00    +0.149 C 
BRANCH  65  66
ATOM     66  C   VAL A  10      13.367  18.052  -4.281  0.00  0.00    +0.241 C 
ATOM     67  O   VAL A  10      12.858  19.163  -4.017  0.00  0.00    -0.273 OA
ATOM     68  N   LEU A  11      12.935  17.239  -5.250  0.00  0.00    -0.298 N 
ATOM     69  H   LEU A  11      13.372  16.301  -5.349  0.00  0.00    +0.150 HD
BRANCH  68  70
ATOM     70  CA  LEU A  11      11.884  17.616  -6.164  0.00  0.00    +0.137 C 
BRANCH  70  71
ATOM     71  C   LEU A  11      10.628  16.780  -5.882  0.00  0.00    +0.227 C 
ATOM     72  O   LEU A  11      10.721  15.640  -5.364  0.00  0.00    -0.286 OA
ENDBRANCH  70  71
BRANCH  70  73
ATOM     73  CB  LEU A  11      12.371  17.327  -7.592  0.00  0.00    +0.028 C 
BRANCH  73  74
ATOM     74  CG  LEU A  11      13.633  18.132  -7.920  0.00  0.00    +0.002 C 
ATOM     75  CD2 LEU A  11      13.437  19.563  -7.736  0.00  0.00    +0.000 C 
ATOM     76  CD1 LEU A  11      13.989  17.925  -9.348  0.00  0.00    +0.000 C 
ENDBRANCH  73  74
ENDBRANCH  70  73
ENDBRANCH  68  70
ENDBRANCH  65  66
BRANCH  65  77
ATOM     77  CB  VAL A  10      13.799  17.342  -1.977  0.00  0.00    +0.027 C 
ATOM     78  CG2 VAL A  10      14.871  17.138  -0.956  0.00  0.00    +0.002 C 
ATOM     79  CG1 VAL A  10      12.853  16.104  -2.003  0.00  0.00    +0.002 C 
ENDBRANCH  65  77
ENDBRANCH  62  65
ENDBRANCH  60  61
BRANCH  60  80
ATOM     80  CB  THR A   9      18.556  19.265  -5.028  0.00  0.00    +0.137 C 
ATOM     81  CG2 THR A   9      17.512  19.424  -6.096  0.00  0.00    +0.034 C 
BRANCH  80  82
ATOM     82  OG1 THR A   9      19.488  20.364  -4.991  0.00  0.00    -0.382 OA
ATOM     83  HG1 THR A   9      20.195  20.173  -4.325  0.00  0.00    +0.210 HD
ENDBRANCH  80  82
ENDBRANCH  60  80
ENDBRANCH  58  60
ENDBRANCH  55  56
BRANCH  55  84
ATOM     84  CB  ASP A   8      19.766  17.049  -0.357  0.00  0.00    +0.143 C 
BRANCH  84  85
ATOM     85  CG  ASP A   8      20.841  16.240   0.508  0.00  0.00    +0.367 C 
ATOM     86  OD2 ASP A   8      20.477  15.724   1.574  0.00  0.00    -0.246 OA
ATOM     87  OD1 ASP A   8      22.011  16.130   0.087  0.00  0.00    -0.246 OA
ENDBRANCH  84  85
ENDBRANCH  55  84
ENDBRANCH  52  55
ENDBRANCH  50  51
BRANCH  50  88
ATOM     88  CB  ASP A   7      22.038  19.149   3.193  0.00  0.00    +0.143 C 
BRANCH  88  89
ATOM     89  CG  ASP A   7      22.462  19.560   4.569  0.00  0.00    +0.367 C 
ATOM     90  OD2 ASP A   7      22.451  18.632   5.363  0.00  0.00    -0.246 OA
ATOM     91  OD1 ASP A   7      22.837  20.693   4.867  0.00  0.00    -0.246 OA
ENDBRANCH  88  89
ENDBRANCH  50  88
ENDBRANCH   2  50
TORSDOF 39
REMARK  Name = ../refined-set-2016/1ajx/1ajx_pocket.pdb
REMARK  205 active torsions:
REMARK  status: ('A' for Active; 'I' for Inactive)
REMARK    1  A    between atoms: _1  and  _3
REMARK    2  A    between atoms: _3  and  _4
REMARK    3  A    between atoms: _3  and  _6
REMARK    4  A    between atoms: _6  and  _7
REMARK    5  A    between atoms: _7  and  _8
REMARK    6  A    between atoms: _8  and  _9
REMARK    7  A    between atoms: _18  and  _20
REMARK    8  A    between atoms: _20  and  _21
REMARK    9  A    between atoms: _20  and  _23
REMARK   10  A    between atoms: _23  and  _24
REMARK   11  A    between atoms: _27  and  _29
REMARK   12  A    between atoms: _29  and  _30
REMARK   13  A    between atoms: _29  and  _32
REMARK   14  A    between atoms: _32  and  _33
REMARK   15  A    between atoms: _36  and  _38
REMARK   16  A    between atoms: _38  and  _39
REMARK   17  A    between atoms: _38  and  _41
REMARK   18  A    between atoms: _41  and  _42
REMARK   19  A    between atoms: _45  and  _47
REMARK   20  A    between atoms: _47  and  _48
REMARK   21  A    between atoms: _47  and  _50
REMARK   22  A    between atoms: _50  and  _51
REMARK   23  A    between atoms: _54  and  _56
REMARK   24  A    between atoms: _56  and  _57
REMARK   25  A    between atoms: _59  and  _61
REMARK   26  A    between atoms: _61  and  _62
REMARK   27  A    between atoms: _65  and  _67
REMARK   28  A    between atoms: _67  and  _68
REMARK   29  A    between atoms: _67  and  _70
REMARK   30  A    between atoms: _70  and  _71
REMARK   31  A    between atoms: _74  and  _76
REMARK   32  A    between atoms: _76  and  _77
REMARK   33  A    between atoms: _76  and  _79
REMARK   34  A    between atoms: _79  and  _80
REMARK   35  A    between atoms: _83  and  _85
REMARK   36  A    between atoms: _85  and  _86
REMARK   37  A    between atoms: _85  and  _88
REMARK   38  A    between atoms: _88  and  _89
REMARK   39  A    between atoms: _92  and  _94
REMARK   40  A    between atoms: _94  and  _95
REMARK   41  A    between atoms: _94  and  _97
REMARK   42  A    between atoms: _100  and  _102
REMARK   43  A    between atoms: _102  and  _103
REMARK   44  A    between atoms: _102  and  _105
REMARK   45  A    between atoms: _105  and  _106
REMARK   46  A    between atoms: _109  and  _111
REMARK   47  A    between atoms: _111  and  _112
REMARK   48  A    between atoms: _114  and  _116
REMARK   49  A    between atoms: _116  and  _117
REMARK   50  A    between atoms: _119  and  _121
REMARK   51  A    between atoms: _121  and  _122
REMARK   52  A    between atoms: _121  and  _124
REMARK   53  A    between atoms: _124  and  _125
REMARK   54  A    between atoms: _128  and  _130
REMARK   55  A    between atoms: _130  and  _131
REMARK   56  A    between atoms: _133  and  _135
REMARK   57  A    between atoms: _135  and  _136
REMARK   58  A    between atoms: _138  and  _140
REMARK   59  A    between atoms: _140  and  _141
REMARK   60  A    between atoms: _140  and  _143
REMARK   61  A    between atoms: _143  and  _144
REMARK   62  A    between atoms: _147  and  _149
REMARK   63  A    between atoms: _149  and  _150
REMARK   64  A    between atoms: _149  and  _152
REMARK   65  A    between atoms: _152  and  _153
REMARK   66  A    between atoms: _156  and  _158
REMARK   67  A    between atoms: _158  and  _159
REMARK   68  A    between atoms: _158  and  _161
REMARK   69  A    between atoms: _161  and  _162
REMARK   70  A    between atoms: _166  and  _167
REMARK   71  A    between atoms: _172  and  _174
REMARK   72  A    between atoms: _174  and  _175
REMARK   73  A    between atoms: _174  and  _177
REMARK   74  A    between atoms: _180  and  _182
REMARK   75  A    between atoms: _182  and  _183
REMARK   76  A    between atoms: _182  and  _185
REMARK   77  A    between atoms: _185  and  _186
REMARK   78  A    between atoms: _191  and  _193
REMARK   79  A    between atoms: _193  and  _194
REMARK   80  A    between atoms: _193  and  _196
REMARK   81  A    between atoms: _196  and  _197
REMARK   82  A    between atoms: _200  and  _202
REMARK   83  A    between atoms: _202  and  _203
REMARK   84  A    between atoms: _202  and  _205
REMARK   85  A    between atoms: _205  and  _206
REMARK   86  A    between atoms: _209  and  _211
REMARK   87  A    between atoms: _211  and  _212
REMARK   88  A    between atoms: _214  and  _216
REMARK   89  A    between atoms: _216  and  _217
REMARK   90  A    between atoms: _216  and  _219
REMARK   91  A    between atoms: _219  and  _220
REMARK   92  A    between atoms: _220  and  _221
REMARK   93  A    between atoms: _221  and  _222
REMARK   94  A    between atoms: _231  and  _233
REMARK   95  A    between atoms: _233  and  _234
REMARK   96  A    between atoms: _233  and  _236
REMARK   97  A    between atoms: _236  and  _237
REMARK   98  A    between atoms: _237  and  _238
REMARK   99  A    between atoms: _238  and  _239
REMARK  100  A    between atoms: _248  and  _250
REMARK  101  A    between atoms: _250  and  _251
REMARK  102  A    between atoms: _250  and  _253
REMARK  103  A    between atoms: _253  and  _254
REMARK  104  A    between atoms: _257  and  _259
REMARK  105  A    between atoms: _259  and  _260
REMARK  106  A    between atoms: _259  and  _262
REMARK  107  A    between atoms: _262  and  _263
REMARK  108  A    between atoms: _266  and  _268
REMARK  109  A    between atoms: _268  and  _269
REMARK  110  A    between atoms: _268  and  _271
REMARK  111  A    between atoms: _271  and  _272
REMARK  112  A    between atoms: _275  and  _277
REMARK  113  A    between atoms: _277  and  _278
REMARK  114  A    between atoms: _277  and  _280
REMARK  115  A    between atoms: _280  and  _281
REMARK  116  A    between atoms: _284  and  _286
REMARK  117  A    between atoms: _286  and  _287
REMARK  118  A    between atoms: _286  and  _289
REMARK  119  A    between atoms: _289  and  _290
REMARK  120  A    between atoms: _293  and  _295
REMARK  121  A    between atoms: _295  and  _296
REMARK  122  A    between atoms: _298  and  _300
REMARK  123  A    between atoms: _300  and  _301
REMARK  124  A    between atoms: _304  and  _306
REMARK  125  A    between atoms: _306  and  _307
REMARK  126  A    between atoms: _306  and  _309
REMARK  127  A    between atoms: _309  and  _310
REMARK  128  A    between atoms: _313  and  _315
REMARK  129  A    between atoms: _315  and  _316
REMARK  130  A    between atoms: _315  and  _318
REMARK  131  A    between atoms: _318  and  _319
REMARK  132  A    between atoms: _322  and  _324
REMARK  133  A    between atoms: _324  and  _325
REMARK  134  A    between atoms: _324  and  _327
REMARK  135  A    between atoms: _327  and  _328
REMARK  136  A    between atoms: _331  and  _333
REMARK  137  A    between atoms: _333  and  _334
REMARK  138  A    between atoms: _333  and  _336
REMARK  139  A    between atoms: _339  and  _341
REMARK  140  A    between atoms: _341  and  _342
REMARK  141  A    between atoms: _341  and  _344
REMARK  142  A    between atoms: _344  and  _345
REMARK  143  A    between atoms: _348  and  _350
REMARK  144  A    between atoms: _350  and  _351
REMARK  145  A    between atoms: _350  and  _353
REMARK  146  A    between atoms: _353  and  _354
REMARK  147  A    between atoms: _354  and  _355
REMARK  148  A    between atoms: _355  and  _356
REMARK  149  A    between atoms: _356  and  _357
REMARK  150  A    between atoms: _361  and  _363
REMARK  151  A    between atoms: _363  and  _364
REMARK  152  A    between atoms: _363  and  _366
REMARK  153  A    between atoms: _366  and  _367
REMARK  154  A    between atoms: _370  and  _372
REMARK  155  A    between atoms: _372  and  _373
REMARK  156  A    between atoms: _375  and  _377
REMARK  157  A    between atoms: _377  and  _378
REMARK  158  A    between atoms: _380  and  _382
REMARK  159  A    between atoms: _382  and  _383
REMARK  160  A    between atoms: _382  and  _385
REMARK  161  A    between atoms: _385  and  _386
REMARK  162  A    between atoms: _389  and  _391
REMARK  163  A    between atoms: _391  and  _392
REMARK  164  A    between atoms: _394  and  _396
REMARK  165  A    between atoms: _396  and  _397
REMARK  166  A    between atoms: _399  and  _401
REMARK  167  A    between atoms: _401  and  _402
REMARK  168  A    between atoms: _401  and  _404
REMARK  169  A    between atoms: _404  and  _405
REMARK  170  A    between atoms: _411  and  _413
REMARK  171  A    between atoms: _413  and  _414
REMARK  172  A    between atoms: _413  and  _416
REMARK  173  A    between atoms: _416  and  _417
REMARK  174  A    between atoms: _420  and  _422
REMARK  175  A    between atoms: _422  and  _423
REMARK  176  A    between atoms: _422  and  _425
REMARK  177  A    between atoms: _425  and  _426
REMARK  178  A    between atoms: _429  and  _431
REMARK  179  A    between atoms: _431  and  _432
REMARK  180  A    between atoms: _431  and  _434
REMARK  181  A    between atoms: _434  and  _435
REMARK  182  A    between atoms: _439  and  _440
REMARK  183  A    between atoms: _445  and  _447
REMARK  184  A    between atoms: _447  and  _448
REMARK  185  A    between atoms: _447  and  _450
REMARK  186  A    between atoms: _453  and  _455
REMARK  187  A    between atoms: _455  and  _456
REMARK  188  A    between atoms: _455  and  _458
REMARK  189  A    between atoms: _458  and  _459
REMARK  190  A    between atoms: _464  and  _466
REMARK  191  A    between atoms: _466  and  _467
REMARK  192  A    between atoms: _466  and  _469
REMARK  193  A    between atoms: _469  and  _470
REMARK  194  A    between atoms: _473  and  _475
REMARK  195  A    between atoms: _475  and  _476
REMARK  196  A    between atoms: _475  and  _478
REMARK  197  A    between atoms: _478  and  _479
REMARK  198  A    between atoms: _482  and  _484
REMARK  199  A    between atoms: _484  and  _485
REMARK  200  A    between atoms: _487  and  _489
REMARK  201  A    between atoms: _489  and  _490
REMARK  202  A    between atoms: _489  and  _492
REMARK  203  A    between atoms: _492  and  _493
REMARK  204  A    between atoms: _493  and  _494
REMARK  205  A    between atoms: _494  and  _495
REMARK                            x       y       z     vdW  Elec       q    Type
REMARK                         _______ _______ _______ _____ _____    ______ ____
ROOT
ATOM      1  CG  LYS A   1      18.781  10.167   1.369  0.00  0.00    -0.000 C 
ENDROOT
BRANCH   1   2
ATOM      2  CB  LYS A   1      18.336   9.112   0.477  0.00  0.00    +0.025 C 
BRANCH   2   3
ATOM      3  CA  LYS A   1      17.729   7.983   1.312  0.00  0.00    +0.133 C 
BRANCH   3   4
ATOM      4  N   LYS A   1      17.153   6.972   0.466  0.00  0.00    -0.239 NA
ATOM      5  H   LYS A   1      16.140   7.020   0.238  0.00  0.00    +0.142 HD
ENDBRANCH   3   4
BRANCH   3   6
ATOM      6  C   LYS A   1      16.643   8.533   2.198  0.00  0.00    +0.224 C 
ATOM      7  O   LYS A   1      15.504   8.649   1.796  0.00  0.00    -0.287 OA
ENDBRANCH   3   6
ENDBRANCH   2   3
ENDBRANCH   1   2
BRANCH   1   8
ATOM      8  CD  LYS A   1      19.965  10.796   0.842  0.00  0.00    -0.024 C 
BRANCH   8   9
ATOM      9  CE  LYS A   1      20.659  11.721   1.847  0.00  0.00    -0.086 C 
BRANCH   9  10
ATOM     10  NZ  LYS A   1      21.637  12.570   1.093  0.00  0.00    +0.380 N 
ATOM     11  HZ1 LYS A   1      22.122  13.208   1.755  0.00  0.00    -0.089 HD
ATOM     12  HZ2 LYS A   1      22.335  11.959   0.624  0.00  0.00    -0.089 HD
ATOM     13  HZ3 LYS A   1      21.129  13.130   0.379  0.00  0.00    -0.089 HD
ENDBRANCH   9  10
ENDBRANCH   8   9
ENDBRANCH   1   8
TORSDOF 7
REMARK  Name = ../refined-set-2016/1ajx/1ajx_pocket.pdb
REMARK  205 active torsions:
REMARK  status: ('A' for Active; 'I' for Inactive)
REMARK    1  A    between atoms: _1  and  _3
REMARK    2  A    between atoms: _3  and  _4
REMARK    3  A    between atoms: _3  and  _6
REMARK    4  A    between atoms: _6  and  _7
REMARK    5  A    between atoms: _7  and  _8
REMARK    6  A    between atoms: _8  and  _9
REMARK    7  A    between atoms: _18  and  _20
REMARK    8  A    between atoms: _20  and  _21
REMARK    9  A    between atoms: _20  and  _23
REMARK   10  A    between atoms: _23  and  _24
REMARK   11  A    between atoms: _27  and  _29
REMARK   12  A    between atoms: _29  and  _30
REMARK   13  A    between atoms: _29  and  _32
REMARK   14  A    between atoms: _32  and  _33
REMARK   15  A    between atoms: _36  and  _38
REMARK   16  A    between atoms: _38  and  _39
REMARK   17  A    between atoms: _38  and  _41
REMARK   18  A    between atoms: _41  and  _42
REMARK   19  A    between atoms: _45  and  _47
REMARK   20  A    between atoms: _47  and  _48
REMARK   21  A    between atoms: _47  and  _50
REMARK   22  A    between atoms: _50  and  _51
REMARK   23  A    between atoms: _54  and  _56
REMARK   24  A    between atoms: _56  and  _57
REMARK   25  A    between atoms: _59  and  _61
REMARK   26  A    between atoms: _61  and  _62
REMARK   27  A    between atoms: _65  and  _67
REMARK   28  A    between atoms: _67  and  _68
REMARK   29  A    between atoms: _67  and  _70
REMARK   30  A    between atoms: _70  and  _71
REMARK   31  A    between atoms: _74  and  _76
REMARK   32  A    between atoms: _76  and  _77
REMARK   33  A    between atoms: _76  and  _79
REMARK   34  A    between atoms: _79  and  _80
REMARK   35  A    between atoms: _83  and  _85
REMARK   36  A    between atoms: _85  and  _86
REMARK   37  A    between atoms: _85  and  _88
REMARK   38  A    between atoms: _88  and  _89
REMARK   39  A    between atoms: _92  and  _94
REMARK   40  A    between atoms: _94  and  _95
REMARK   41  A    between atoms: _94  and  _97
REMARK   42  A    between atoms: _100  and  _102
REMARK   43  A    between atoms: _102  and  _103
REMARK   44  A    between atoms: _102  and  _105
REMARK   45  A    between atoms: _105  and  _106
REMARK   46  A    between atoms: _109  and  _111
REMARK   47  A    between atoms: _111  and  _112
REMARK   48  A    between atoms: _114  and  _116
REMARK   49  A    between atoms: _116  and  _117
REMARK   50  A    between atoms: _119  and  _121
REMARK   51  A    between atoms: _121  and  _122
REMARK   52  A    between atoms: _121  and  _124
REMARK   53  A    between atoms: _124  and  _125
REMARK   54  A    between atoms: _128  and  _130
REMARK   55  A    between atoms: _130  and  _131
REMARK   56  A    between atoms: _133  and  _135
REMARK   57  A    between atoms: _135  and  _136
REMARK   58  A    between atoms: _138  and  _140
REMARK   59  A    between atoms: _140  and  _141
REMARK   60  A    between atoms: _140  and  _143
REMARK   61  A    between atoms: _143  and  _144
REMARK   62  A    between atoms: _147  and  _149
REMARK   63  A    between atoms: _149  and  _150
REMARK   64  A    between atoms: _149  and  _152
REMARK   65  A    between atoms: _152  and  _153
REMARK   66  A    between atoms: _156  and  _158
REMARK   67  A    between atoms: _158  and  _159
REMARK   68  A    between atoms: _158  and  _161
REMARK   69  A    between atoms: _161  and  _162
REMARK   70  A    between atoms: _166  and  _167
REMARK   71  A    between atoms: _172  and  _174
REMARK   72  A    between atoms: _174  and  _175
REMARK   73  A    between atoms: _174  and  _177
REMARK   74  A    between atoms: _180  and  _182
REMARK   75  A    between atoms: _182  and  _183
REMARK   76  A    between atoms: _182  and  _185
REMARK   77  A    between atoms: _185  and  _186
REMARK   78  A    between atoms: _191  and  _193
REMARK   79  A    between atoms: _193  and  _194
REMARK   80  A    between atoms: _193  and  _196
REMARK   81  A    between atoms: _196  and  _197
REMARK   82  A    between atoms: _200  and  _202
REMARK   83  A    between atoms: _202  and  _203
REMARK   84  A    between atoms: _202  and  _205
REMARK   85  A    between atoms: _205  and  _206
REMARK   86  A    between atoms: _209  and  _211
REMARK   87  A    between atoms: _211  and  _212
REMARK   88  A    between atoms: _214  and  _216
REMARK   89  A    between atoms: _216  and  _217
REMARK   90  A    between atoms: _216  and  _219
REMARK   91  A    between atoms: _219  and  _220
REMARK   92  A    between atoms: _220  and  _221
REMARK   93  A    between atoms: _221  and  _222
REMARK   94  A    between atoms: _231  and  _233
REMARK   95  A    between atoms: _233  and  _234
REMARK   96  A    between atoms: _233  and  _236
REMARK   97  A    between atoms: _236  and  _237
REMARK   98  A    between atoms: _237  and  _238
REMARK   99  A    between atoms: _238  and  _239
REMARK  100  A    between atoms: _248  and  _250
REMARK  101  A    between atoms: _250  and  _251
REMARK  102  A    between atoms: _250  and  _253
REMARK  103  A    between atoms: _253  and  _254
REMARK  104  A    between atoms: _257  and  _259
REMARK  105  A    between atoms: _259  and  _260
REMARK  106  A    between atoms: _259  and  _262
REMARK  107  A    between atoms: _262  and  _263
REMARK  108  A    between atoms: _266  and  _268
REMARK  109  A    between atoms: _268  and  _269
REMARK  110  A    between atoms: _268  and  _271
REMARK  111  A    between atoms: _271  and  _272
REMARK  112  A    between atoms: _275  and  _277
REMARK  113  A    between atoms: _277  and  _278
REMARK  114  A    between atoms: _277  and  _280
REMARK  115  A    between atoms: _280  and  _281
REMARK  116  A    between atoms: _284  and  _286
REMARK  117  A    between atoms: _286  and  _287
REMARK  118  A    between atoms: _286  and  _289
REMARK  119  A    between atoms: _289  and  _290
REMARK  120  A    between atoms: _293  and  _295
REMARK  121  A    between atoms: _295  and  _296
REMARK  122  A    between atoms: _298  and  _300
REMARK  123  A    between atoms: _300  and  _301
REMARK  124  A    between atoms: _304  and  _306
REMARK  125  A    between atoms: _306  and  _307
REMARK  126  A    between atoms: _306  and  _309
REMARK  127  A    between atoms: _309  and  _310
REMARK  128  A    between atoms: _313  and  _315
REMARK  129  A    between atoms: _315  and  _316
REMARK  130  A    between atoms: _315  and  _318
REMARK  131  A    between atoms: _318  and  _319
REMARK  132  A    between atoms: _322  and  _324
REMARK  133  A    between atoms: _324  and  _325
REMARK  134  A    between atoms: _324  and  _327
REMARK  135  A    between atoms: _327  and  _328
REMARK  136  A    between atoms: _331  and  _333
REMARK  137  A    between atoms: _333  and  _334
REMARK  138  A    between atoms: _333  and  _336
REMARK  139  A    between atoms: _339  and  _341
REMARK  140  A    between atoms: _341  and  _342
REMARK  141  A    between atoms: _341  and  _344
REMARK  142  A    between atoms: _344  and  _345
REMARK  143  A    between atoms: _348  and  _350
REMARK  144  A    between atoms: _350  and  _351
REMARK  145  A    between atoms: _350  and  _353
REMARK  146  A    between atoms: _353  and  _354
REMARK  147  A    between atoms: _354  and  _355
REMARK  148  A    between atoms: _355  and  _356
REMARK  149  A    between atoms: _356  and  _357
REMARK  150  A    between atoms: _361  and  _363
REMARK  151  A    between atoms: _363  and  _364
REMARK  152  A    between atoms: _363  and  _366
REMARK  153  A    between atoms: _366  and  _367
REMARK  154  A    between atoms: _370  and  _372
REMARK  155  A    between atoms: _372  and  _373
REMARK  156  A    between atoms: _375  and  _377
REMARK  157  A    between atoms: _377  and  _378
REMARK  158  A    between atoms: _380  and  _382
REMARK  159  A    between atoms: _382  and  _383
REMARK  160  A    between atoms: _382  and  _385
REMARK  161  A    between atoms: _385  and  _386
REMARK  162  A    between atoms: _389  and  _391
REMARK  163  A    between atoms: _391  and  _392
REMARK  164  A    between atoms: _394  and  _396
REMARK  165  A    between atoms: _396  and  _397
REMARK  166  A    between atoms: _399  and  _401
REMARK  167  A    between atoms: _401  and  _402
REMARK  168  A    between atoms: _401  and  _404
REMARK  169  A    between atoms: _404  and  _405
REMARK  170  A    between atoms: _411  and  _413
REMARK  171  A    between atoms: _413  and  _414
REMARK  172  A    between atoms: _413  and  _416
REMARK  173  A    between atoms: _416  and  _417
REMARK  174  A    between atoms: _420  and  _422
REMARK  175  A    between atoms: _422  and  _423
REMARK  176  A    between atoms: _422  and  _425
REMARK  177  A    between atoms: _425  and  _426
REMARK  178  A    between atoms: _429  and  _431
REMARK  179  A    between atoms: _431  and  _432
REMARK  180  A    between atoms: _431  and  _434
REMARK  181  A    between atoms: _434  and  _435
REMARK  182  A    between atoms: _439  and  _440
REMARK  183  A    between atoms: _445  and  _447
REMARK  184  A    between atoms: _447  and  _448
REMARK  185  A    between atoms: _447  and  _450
REMARK  186  A    between atoms: _453  and  _455
REMARK  187  A    between atoms: _455  and  _456
REMARK  188  A    between atoms: _455  and  _458
REMARK  189  A    between atoms: _458  and  _459
REMARK  190  A    between atoms: _464  and  _466
REMARK  191  A    between atoms: _466  and  _467
REMARK  192  A    between atoms: _466  and  _469
REMARK  193  A    between atoms: _469  and  _470
REMARK  194  A    between atoms: _473  and  _475
REMARK  195  A    between atoms: _475  and  _476
REMARK  196  A    between atoms: _475  and  _478
REMARK  197  A    between atoms: _478  and  _479
REMARK  198  A    between atoms: _482  and  _484
REMARK  199  A    between atoms: _484  and  _485
REMARK  200  A    between atoms: _487  and  _489
REMARK  201  A    between atoms: _489  and  _490
REMARK  202  A    between atoms: _489  and  _492
REMARK  203  A    between atoms: _492  and  _493
REMARK  204  A    between atoms: _493  and  _494
REMARK  205  A    between atoms: _494  and  _495
REMARK                            x       y       z     vdW  Elec       q    Type
REMARK                         _______ _______ _______ _____ _____    ______ ____
ROOT
ATOM      1  C   ILE A   4      10.028  19.272  10.930  0.00  0.00    +0.241 C 
ATOM      2  O   ILE A   4       9.989  19.198  12.179  0.00  0.00    -0.273 OA
ATOM      3  N   GLY A   5       9.217  18.556  10.161  0.00  0.00    -0.295 N 
ATOM      4  H   GLY A   5       9.287  18.605   9.125  0.00  0.00    +0.150 HD
ENDROOT
BRANCH   3   5
ATOM      5  CA  GLY A   5       8.231  17.705  10.797  0.00  0.00    +0.176 C 
BRANCH   5   6
ATOM      6  C   GLY A   5       8.643  16.231  10.932  0.00  0.00    +0.243 C 
ATOM      7  O   GLY A   5       7.801  15.415  11.272  0.00  0.00    -0.273 OA
ATOM      8  N   GLY A   6       9.902  15.884  10.661  0.00  0.00    -0.295 N 
ATOM      9  H   GLY A   6      10.576  16.624  10.377  0.00  0.00    +0.150 HD
BRANCH   8  10
ATOM     10  CA  GLY A   6      10.368  14.504  10.749  0.00  0.00    +0.176 C 
BRANCH  10  11
ATOM     11  C   GLY A   6      11.111  14.061   9.491  0.00  0.00    +0.243 C 
ATOM     12  N   PHE A   7      11.198  12.759   9.316  0.00  0.00    -0.297 N 
ATOM     13  H   PHE A   7      10.732  12.141  10.011  0.00  0.00    +0.150 HD
ATOM     14  O   GLY A   6      11.451  14.837   8.641  0.00  0.00    -0.273 OA
BRANCH  12  15
ATOM     15  CA  PHE A   7      11.909  12.128   8.205  0.00  0.00    +0.153 C 
BRANCH  15  16
ATOM     16  C   PHE A   7      11.002  11.633   7.083  0.00  0.00    +0.241 C 
ATOM     17  O   PHE A   7       9.800  11.364   7.291  0.00  0.00    -0.273 OA
ATOM     18  N   ILE A   8      11.498  11.758   5.865  0.00  0.00    -0.298 N 
ATOM     19  H   ILE A   8      12.415  12.229   5.731  0.00  0.00    +0.150 HD
BRANCH  18  20
ATOM     20  CA  ILE A   8      10.791  11.254   4.726  0.00  0.00    +0.137 C 
BRANCH  20  21
ATOM     21  CB  ILE A   8      10.033  12.380   3.910  0.00  0.00    +0.026 C 
ATOM     22  CG2 ILE A   8       8.993  13.015   4.829  0.00  0.00    +0.002 C 
BRANCH  21  23
ATOM     23  CG1 ILE A   8      10.978  13.450   3.280  0.00  0.00    +0.002 C 
ATOM     24  CD1 ILE A   8      10.673  13.823   1.839  0.00  0.00    +0.000 C 
ENDBRANCH  21  23
ENDBRANCH  20  21
BRANCH  20  25
ATOM     25  C   ILE A   8      11.817  10.378   3.931  0.00  0.00    +0.227 C 
ATOM     26  O   ILE A   8      13.000  10.478   4.120  0.00  0.00    -0.286 OA
ENDBRANCH  20  25
ENDBRANCH  18  20
ENDBRANCH  15  16
BRANCH  15  27
ATOM     27  CB  PHE A   7      12.772  10.987   8.747  0.00  0.00    +0.055 C 
BRANCH  27  28
ATOM     28  CG  PHE A   7      13.852  11.450   9.644  0.00  0.00    -0.020 A 
ATOM     29  CD2 PHE A   7      13.554  11.933  10.902  0.00  0.00    -0.004 A 
ATOM     30  CE2 PHE A   7      14.500  12.556  11.670  0.00  0.00    -0.000 A 
ATOM     31  CZ  PHE A   7      15.796  12.698  11.179  0.00  0.00    -0.000 A 
ATOM     32  CE1 PHE A   7      16.111  12.191   9.926  0.00  0.00    -0.000 A 
ATOM     33  CD1 PHE A   7      15.133  11.571   9.174  0.00  0.00    -0.004 A 
ENDBRANCH  27  28
ENDBRANCH  15  27
ENDBRANCH  12  15
ENDBRANCH  10  11
ENDBRANCH   8  10
ENDBRANCH   5   6
ENDBRANCH   3   5
BRANCH   1  34
ATOM     34  CA  ILE A   4      11.070  20.179  10.185  0.00  0.00    +0.149 C 
BRANCH  34  37
ATOM     35  C   GLY A   3      12.347  18.513   9.021  0.00  0.00    +0.243 C 
ATOM     36  O   GLY A   3      12.674  17.993  10.101  0.00  0.00    -0.273 OA
ATOM     37  N   ILE A   4      11.527  19.537   8.963  0.00  0.00    -0.297 N 
ATOM     38  H   ILE A   4      11.203  19.890   8.040  0.00  0.00    +0.150 HD
BRANCH  35  39
ATOM     39  CA  GLY A   3      12.769  17.933   7.714  0.00  0.00    +0.176 C 
BRANCH  39  41
ATOM     40  C   GLY A   2      14.650  16.383   7.821  0.00  0.00    +0.243 C 
ATOM     41  N   GLY A   3      13.363  16.633   8.028  0.00  0.00    -0.295 N 
ATOM     42  H   GLY A   3      12.760  15.884   8.424  0.00  0.00    +0.150 HD
ATOM     43  O   GLY A   2      15.411  17.181   7.257  0.00  0.00    -0.273 OA
BRANCH  40  44
ATOM     44  CA  GLY A   2      15.156  14.991   8.170  0.00  0.00    +0.176 C 
BRANCH  44  46
ATOM     45  C   ILE A   1      15.156  13.645   6.123  0.00  0.00    +0.238 C 
ATOM     46  N   GLY A   2      15.806  14.394   7.019  0.00  0.00    -0.296 N 
ATOM     47  H   GLY A   2      16.824  14.556   6.885  0.00  0.00    +0.150 HD
ATOM     48  O   ILE A   1      13.956  13.342   6.192  0.00  0.00    -0.274 OA
BRANCH  45  49
ATOM     49  CA  ILE A   1      16.013  13.133   4.962  0.00  0.00    +0.145 C 
BRANCH  49  50
ATOM     50  N   ILE A   1      15.662  11.761   4.667  0.00  0.00    -0.238 NA
ATOM     51  H   ILE A   1      14.683  11.520   4.413  0.00  0.00    +0.142 HD
ENDBRANCH  49  50
BRANCH  49  52
ATOM     52  CB  ILE A   1      15.898  14.094   3.709  0.00  0.00    +0.025 C 
ATOM     53  CG2 ILE A   1      16.887  13.693   2.562  0.00  0.00    +0.002 C 
BRANCH  52  54
ATOM     54  CG1 ILE A   1      14.458  14.256   3.298  0.00  0.00    +0.002 C 
ATOM     55  CD1 ILE A   1      14.361  14.932   2.034  0.00  0.00    +0.000 C 
ENDBRANCH  52  54
ENDBRANCH  49  52
ENDBRANCH  45  49
ENDBRANCH  44  46
ENDBRANCH  40  44
ENDBRANCH  39  41
ENDBRANCH  35  39
ENDBRANCH  34  37
BRANCH  34  56
ATOM     56  CB  ILE A   4      10.557  21.609   9.879  0.00  0.00    +0.027 C 
ATOM     57  CG2 ILE A   4       9.096  21.668   9.446  0.00  0.00    +0.002 C 
BRANCH  56  58
ATOM     58  CG1 ILE A   4      10.943  22.456  11.026  0.00  0.00    +0.002 C 
ATOM     59  CD1 ILE A   4      12.426  22.487  11.075  0.00  0.00    +0.000 C 
ENDBRANCH  56  58
ENDBRANCH  34  56
ENDBRANCH   1  34
TORSDOF 24
REMARK  Name = ../refined-set-2016/1ajx/1ajx_pocket.pdb
REMARK  205 active torsions:
REMARK  status: ('A' for Active; 'I' for Inactive)
REMARK    1  A    between atoms: _1  and  _3
REMARK    2  A    between atoms: _3  and  _4
REMARK    3  A    between atoms: _3  and  _6
REMARK    4  A    between atoms: _6  and  _7
REMARK    5  A    between atoms: _7  and  _8
REMARK    6  A    between atoms: _8  and  _9
REMARK    7  A    between atoms: _18  and  _20
REMARK    8  A    between atoms: _20  and  _21
REMARK    9  A    between atoms: _20  and  _23
REMARK   10  A    between atoms: _23  and  _24
REMARK   11  A    between atoms: _27  and  _29
REMARK   12  A    between atoms: _29  and  _30
REMARK   13  A    between atoms: _29  and  _32
REMARK   14  A    between atoms: _32  and  _33
REMARK   15  A    between atoms: _36  and  _38
REMARK   16  A    between atoms: _38  and  _39
REMARK   17  A    between atoms: _38  and  _41
REMARK   18  A    between atoms: _41  and  _42
REMARK   19  A    between atoms: _45  and  _47
REMARK   20  A    between atoms: _47  and  _48
REMARK   21  A    between atoms: _47  and  _50
REMARK   22  A    between atoms: _50  and  _51
REMARK   23  A    between atoms: _54  and  _56
REMARK   24  A    between atoms: _56  and  _57
REMARK   25  A    between atoms: _59  and  _61
REMARK   26  A    between atoms: _61  and  _62
REMARK   27  A    between atoms: _65  and  _67
REMARK   28  A    between atoms: _67  and  _68
REMARK   29  A    between atoms: _67  and  _70
REMARK   30  A    between atoms: _70  and  _71
REMARK   31  A    between atoms: _74  and  _76
REMARK   32  A    between atoms: _76  and  _77
REMARK   33  A    between atoms: _76  and  _79
REMARK   34  A    between atoms: _79  and  _80
REMARK   35  A    between atoms: _83  and  _85
REMARK   36  A    between atoms: _85  and  _86
REMARK   37  A    between atoms: _85  and  _88
REMARK   38  A    between atoms: _88  and  _89
REMARK   39  A    between atoms: _92  and  _94
REMARK   40  A    between atoms: _94  and  _95
REMARK   41  A    between atoms: _94  and  _97
REMARK   42  A    between atoms: _100  and  _102
REMARK   43  A    between atoms: _102  and  _103
REMARK   44  A    between atoms: _102  and  _105
REMARK   45  A    between atoms: _105  and  _106
REMARK   46  A    between atoms: _109  and  _111
REMARK   47  A    between atoms: _111  and  _112
REMARK   48  A    between atoms: _114  and  _116
REMARK   49  A    between atoms: _116  and  _117
REMARK   50  A    between atoms: _119  and  _121
REMARK   51  A    between atoms: _121  and  _122
REMARK   52  A    between atoms: _121  and  _124
REMARK   53  A    between atoms: _124  and  _125
REMARK   54  A    between atoms: _128  and  _130
REMARK   55  A    between atoms: _130  and  _131
REMARK   56  A    between atoms: _133  and  _135
REMARK   57  A    between atoms: _135  and  _136
REMARK   58  A    between atoms: _138  and  _140
REMARK   59  A    between atoms: _140  and  _141
REMARK   60  A    between atoms: _140  and  _143
REMARK   61  A    between atoms: _143  and  _144
REMARK   62  A    between atoms: _147  and  _149
REMARK   63  A    between atoms: _149  and  _150
REMARK   64  A    between atoms: _149  and  _152
REMARK   65  A    between atoms: _152  and  _153
REMARK   66  A    between atoms: _156  and  _158
REMARK   67  A    between atoms: _158  and  _159
REMARK   68  A    between atoms: _158  and  _161
REMARK   69  A    between atoms: _161  and  _162
REMARK   70  A    between atoms: _166  and  _167
REMARK   71  A    between atoms: _172  and  _174
REMARK   72  A    between atoms: _174  and  _175
REMARK   73  A    between atoms: _174  and  _177
REMARK   74  A    between atoms: _180  and  _182
REMARK   75  A    between atoms: _182  and  _183
REMARK   76  A    between atoms: _182  and  _185
REMARK   77  A    between atoms: _185  and  _186
REMARK   78  A    between atoms: _191  and  _193
REMARK   79  A    between atoms: _193  and  _194
REMARK   80  A    between atoms: _193  and  _196
REMARK   81  A    between atoms: _196  and  _197
REMARK   82  A    between atoms: _200  and  _202
REMARK   83  A    between atoms: _202  and  _203
REMARK   84  A    between atoms: _202  and  _205
REMARK   85  A    between atoms: _205  and  _206
REMARK   86  A    between atoms: _209  and  _211
REMARK   87  A    between atoms: _211  and  _212
REMARK   88  A    between atoms: _214  and  _216
REMARK   89  A    between atoms: _216  and  _217
REMARK   90  A    between atoms: _216  and  _219
REMARK   91  A    between atoms: _219  and  _220
REMARK   92  A    between atoms: _220  and  _221
REMARK   93  A    between atoms: _221  and  _222
REMARK   94  A    between atoms: _231  and  _233
REMARK   95  A    between atoms: _233  and  _234
REMARK   96  A    between atoms: _233  and  _236
REMARK   97  A    between atoms: _236  and  _237
REMARK   98  A    between atoms: _237  and  _238
REMARK   99  A    between atoms: _238  and  _239
REMARK  100  A    between atoms: _248  and  _250
REMARK  101  A    between atoms: _250  and  _251
REMARK  102  A    between atoms: _250  and  _253
REMARK  103  A    between atoms: _253  and  _254
REMARK  104  A    between atoms: _257  and  _259
REMARK  105  A    between atoms: _259  and  _260
REMARK  106  A    between atoms: _259  and  _262
REMARK  107  A    between atoms: _262  and  _263
REMARK  108  A    between atoms: _266  and  _268
REMARK  109  A    between atoms: _268  and  _269
REMARK  110  A    between atoms: _268  and  _271
REMARK  111  A    between atoms: _271  and  _272
REMARK  112  A    between atoms: _275  and  _277
REMARK  113  A    between atoms: _277  and  _278
REMARK  114  A    between atoms: _277  and  _280
REMARK  115  A    between atoms: _280  and  _281
REMARK  116  A    between atoms: _284  and  _286
REMARK  117  A    between atoms: _286  and  _287
REMARK  118  A    between atoms: _286  and  _289
REMARK  119  A    between atoms: _289  and  _290
REMARK  120  A    between atoms: _293  and  _295
REMARK  121  A    between atoms: _295  and  _296
REMARK  122  A    between atoms: _298  and  _300
REMARK  123  A    between atoms: _300  and  _301
REMARK  124  A    between atoms: _304  and  _306
REMARK  125  A    between atoms: _306  and  _307
REMARK  126  A    between atoms: _306  and  _309
REMARK  127  A    between atoms: _309  and  _310
REMARK  128  A    between atoms: _313  and  _315
REMARK  129  A    between atoms: _315  and  _316
REMARK  130  A    between atoms: _315  and  _318
REMARK  131  A    between atoms: _318  and  _319
REMARK  132  A    between atoms: _322  and  _324
REMARK  133  A    between atoms: _324  and  _325
REMARK  134  A    between atoms: _324  and  _327
REMARK  135  A    between atoms: _327  and  _328
REMARK  136  A    between atoms: _331  and  _333
REMARK  137  A    between atoms: _333  and  _334
REMARK  138  A    between atoms: _333  and  _336
REMARK  139  A    between atoms: _339  and  _341
REMARK  140  A    between atoms: _341  and  _342
REMARK  141  A    between atoms: _341  and  _344
REMARK  142  A    between atoms: _344  and  _345
REMARK  143  A    between atoms: _348  and  _350
REMARK  144  A    between atoms: _350  and  _351
REMARK  145  A    between atoms: _350  and  _353
REMARK  146  A    between atoms: _353  and  _354
REMARK  147  A    between atoms: _354  and  _355
REMARK  148  A    between atoms: _355  and  _356
REMARK  149  A    between atoms: _356  and  _357
REMARK  150  A    between atoms: _361  and  _363
REMARK  151  A    between atoms: _363  and  _364
REMARK  152  A    between atoms: _363  and  _366
REMARK  153  A    between atoms: _366  and  _367
REMARK  154  A    between atoms: _370  and  _372
REMARK  155  A    between atoms: _372  and  _373
REMARK  156  A    between atoms: _375  and  _377
REMARK  157  A    between atoms: _377  and  _378
REMARK  158  A    between atoms: _380  and  _382
REMARK  159  A    between atoms: _382  and  _383
REMARK  160  A    between atoms: _382  and  _385
REMARK  161  A    between atoms: _385  and  _386
REMARK  162  A    between atoms: _389  and  _391
REMARK  163  A    between atoms: _391  and  _392
REMARK  164  A    between atoms: _394  and  _396
REMARK  165  A    between atoms: _396  and  _397
REMARK  166  A    between atoms: _399  and  _401
REMARK  167  A    between atoms: _401  and  _402
REMARK  168  A    between atoms: _401  and  _404
REMARK  169  A    between atoms: _404  and  _405
REMARK  170  A    between atoms: _411  and  _413
REMARK  171  A    between atoms: _413  and  _414
REMARK  172  A    between atoms: _413  and  _416
REMARK  173  A    between atoms: _416  and  _417
REMARK  174  A    between atoms: _420  and  _422
REMARK  175  A    between atoms: _422  and  _423
REMARK  176  A    between atoms: _422  and  _425
REMARK  177  A    between atoms: _425  and  _426
REMARK  178  A    between atoms: _429  and  _431
REMARK  179  A    between atoms: _431  and  _432
REMARK  180  A    between atoms: _431  and  _434
REMARK  181  A    between atoms: _434  and  _435
REMARK  182  A    between atoms: _439  and  _440
REMARK  183  A    between atoms: _445  and  _447
REMARK  184  A    between atoms: _447  and  _448
REMARK  185  A    between atoms: _447  and  _450
REMARK  186  A    between atoms: _453  and  _455
REMARK  187  A    between atoms: _455  and  _456
REMARK  188  A    between atoms: _455  and  _458
REMARK  189  A    between atoms: _458  and  _459
REMARK  190  A    between atoms: _464  and  _466
REMARK  191  A    between atoms: _466  and  _467
REMARK  192  A    between atoms: _466  and  _469
REMARK  193  A    between atoms: _469  and  _470
REMARK  194  A    between atoms: _473  and  _475
REMARK  195  A    between atoms: _475  and  _476
REMARK  196  A    between atoms: _475  and  _478
REMARK  197  A    between atoms: _478  and  _479
REMARK  198  A    between atoms: _482  and  _484
REMARK  199  A    between atoms: _484  and  _485
REMARK  200  A    between atoms: _487  and  _489
REMARK  201  A    between atoms: _489  and  _490
REMARK  202  A    between atoms: _489  and  _492
REMARK  203  A    between atoms: _492  and  _493
REMARK  204  A    between atoms: _493  and  _494
REMARK  205  A    between atoms: _494  and  _495
REMARK                            x       y       z     vdW  Elec       q    Type
REMARK                         _______ _______ _______ _____ _____    ______ ____
ROOT
ATOM      1  CA  LEU A   1      16.145  13.436  -4.597  0.00  0.00    +0.133 C 
ENDROOT
BRANCH   1   2
ATOM      2  N   LEU A   1      17.006  14.363  -5.345  0.00  0.00    -0.239 NA
ATOM      3  H   LEU A   1      17.019  15.368  -5.077  0.00  0.00    +0.142 HD
ENDBRANCH   1   2
BRANCH   1   4
ATOM      4  C   LEU A   1      14.704  13.771  -5.019  0.00  0.00    +0.224 C 
ATOM      5  O   LEU A   1      14.362  14.916  -5.354  0.00  0.00    -0.287 OA
ENDBRANCH   1   4
BRANCH   1   6
ATOM      6  CB  LEU A   1      16.319  13.596  -3.071  0.00  0.00    +0.025 C 
BRANCH   6   7
ATOM      7  CG  LEU A   1      17.760  13.766  -2.562  0.00  0.00    +0.002 C 
ATOM      8  CD2 LEU A   1      17.818  14.078  -1.061  0.00  0.00    +0.000 C 
ATOM      9  CD1 LEU A   1      18.629  12.479  -2.957  0.00  0.00    +0.000 C 
ENDBRANCH   6   7
ENDBRANCH   1   6
TORSDOF 4
REMARK  Name = ../refined-set-2016/1ajx/1ajx_pocket.pdb
REMARK  205 active torsions:
REMARK  status: ('A' for Active; 'I' for Inactive)
REMARK    1  A    between atoms: _1  and  _3
REMARK    2  A    between atoms: _3  and  _4
REMARK    3  A    between atoms: _3  and  _6
REMARK    4  A    between atoms: _6  and  _7
REMARK    5  A    between atoms: _7  and  _8
REMARK    6  A    between atoms: _8  and  _9
REMARK    7  A    between atoms: _18  and  _20
REMARK    8  A    between atoms: _20  and  _21
REMARK    9  A    between atoms: _20  and  _23
REMARK   10  A    between atoms: _23  and  _24
REMARK   11  A    between atoms: _27  and  _29
REMARK   12  A    between atoms: _29  and  _30
REMARK   13  A    between atoms: _29  and  _32
REMARK   14  A    between atoms: _32  and  _33
REMARK   15  A    between atoms: _36  and  _38
REMARK   16  A    between atoms: _38  and  _39
REMARK   17  A    between atoms: _38  and  _41
REMARK   18  A    between atoms: _41  and  _42
REMARK   19  A    between atoms: _45  and  _47
REMARK   20  A    between atoms: _47  and  _48
REMARK   21  A    between atoms: _47  and  _50
REMARK   22  A    between atoms: _50  and  _51
REMARK   23  A    between atoms: _54  and  _56
REMARK   24  A    between atoms: _56  and  _57
REMARK   25  A    between atoms: _59  and  _61
REMARK   26  A    between atoms: _61  and  _62
REMARK   27  A    between atoms: _65  and  _67
REMARK   28  A    between atoms: _67  and  _68
REMARK   29  A    between atoms: _67  and  _70
REMARK   30  A    between atoms: _70  and  _71
REMARK   31  A    between atoms: _74  and  _76
REMARK   32  A    between atoms: _76  and  _77
REMARK   33  A    between atoms: _76  and  _79
REMARK   34  A    between atoms: _79  and  _80
REMARK   35  A    between atoms: _83  and  _85
REMARK   36  A    between atoms: _85  and  _86
REMARK   37  A    between atoms: _85  and  _88
REMARK   38  A    between atoms: _88  and  _89
REMARK   39  A    between atoms: _92  and  _94
REMARK   40  A    between atoms: _94  and  _95
REMARK   41  A    between atoms: _94  and  _97
REMARK   42  A    between atoms: _100  and  _102
REMARK   43  A    between atoms: _102  and  _103
REMARK   44  A    between atoms: _102  and  _105
REMARK   45  A    between atoms: _105  and  _106
REMARK   46  A    between atoms: _109  and  _111
REMARK   47  A    between atoms: _111  and  _112
REMARK   48  A    between atoms: _114  and  _116
REMARK   49  A    between atoms: _116  and  _117
REMARK   50  A    between atoms: _119  and  _121
REMARK   51  A    between atoms: _121  and  _122
REMARK   52  A    between atoms: _121  and  _124
REMARK   53  A    between atoms: _124  and  _125
REMARK   54  A    between atoms: _128  and  _130
REMARK   55  A    between atoms: _130  and  _131
REMARK   56  A    between atoms: _133  and  _135
REMARK   57  A    between atoms: _135  and  _136
REMARK   58  A    between atoms: _138  and  _140
REMARK   59  A    between atoms: _140  and  _141
REMARK   60  A    between atoms: _140  and  _143
REMARK   61  A    between atoms: _143  and  _144
REMARK   62  A    between atoms: _147  and  _149
REMARK   63  A    between atoms: _149  and  _150
REMARK   64  A    between atoms: _149  and  _152
REMARK   65  A    between atoms: _152  and  _153
REMARK   66  A    between atoms: _156  and  _158
REMARK   67  A    between atoms: _158  and  _159
REMARK   68  A    between atoms: _158  and  _161
REMARK   69  A    between atoms: _161  and  _162
REMARK   70  A    between atoms: _166  and  _167
REMARK   71  A    between atoms: _172  and  _174
REMARK   72  A    between atoms: _174  and  _175
REMARK   73  A    between atoms: _174  and  _177
REMARK   74  A    between atoms: _180  and  _182
REMARK   75  A    between atoms: _182  and  _183
REMARK   76  A    between atoms: _182  and  _185
REMARK   77  A    between atoms: _185  and  _186
REMARK   78  A    between atoms: _191  and  _193
REMARK   79  A    between atoms: _193  and  _194
REMARK   80  A    between atoms: _193  and  _196
REMARK   81  A    between atoms: _196  and  _197
REMARK   82  A    between atoms: _200  and  _202
REMARK   83  A    between atoms: _202  and  _203
REMARK   84  A    between atoms: _202  and  _205
REMARK   85  A    between atoms: _205  and  _206
REMARK   86  A    between atoms: _209  and  _211
REMARK   87  A    between atoms: _211  and  _212
REMARK   88  A    between atoms: _214  and  _216
REMARK   89  A    between atoms: _216  and  _217
REMARK   90  A    between atoms: _216  and  _219
REMARK   91  A    between atoms: _219  and  _220
REMARK   92  A    between atoms: _220  and  _221
REMARK   93  A    between atoms: _221  and  _222
REMARK   94  A    between atoms: _231  and  _233
REMARK   95  A    between atoms: _233  and  _234
REMARK   96  A    between atoms: _233  and  _236
REMARK   97  A    between atoms: _236  and  _237
REMARK   98  A    between atoms: _237  and  _238
REMARK   99  A    between atoms: _238  and  _239
REMARK  100  A    between atoms: _248  and  _250
REMARK  101  A    between atoms: _250  and  _251
REMARK  102  A    between atoms: _250  and  _253
REMARK  103  A    between atoms: _253  and  _254
REMARK  104  A    between atoms: _257  and  _259
REMARK  105  A    between atoms: _259  and  _260
REMARK  106  A    between atoms: _259  and  _262
REMARK  107  A    between atoms: _262  and  _263
REMARK  108  A    between atoms: _266  and  _268
REMARK  109  A    between atoms: _268  and  _269
REMARK  110  A    between atoms: _268  and  _271
REMARK  111  A    between atoms: _271  and  _272
REMARK  112  A    between atoms: _275  and  _277
REMARK  113  A    between atoms: _277  and  _278
REMARK  114  A    between atoms: _277  and  _280
REMARK  115  A    between atoms: _280  and  _281
REMARK  116  A    between atoms: _284  and  _286
REMARK  117  A    between atoms: _286  and  _287
REMARK  118  A    between atoms: _286  and  _289
REMARK  119  A    between atoms: _289  and  _290
REMARK  120  A    between atoms: _293  and  _295
REMARK  121  A    between atoms: _295  and  _296
REMARK  122  A    between atoms: _298  and  _300
REMARK  123  A    between atoms: _300  and  _301
REMARK  124  A    between atoms: _304  and  _306
REMARK  125  A    between atoms: _306  and  _307
REMARK  126  A    between atoms: _306  and  _309
REMARK  127  A    between atoms: _309  and  _310
REMARK  128  A    between atoms: _313  and  _315
REMARK  129  A    between atoms: _315  and  _316
REMARK  130  A    between atoms: _315  and  _318
REMARK  131  A    between atoms: _318  and  _319
REMARK  132  A    between atoms: _322  and  _324
REMARK  133  A    between atoms: _324  and  _325
REMARK  134  A    between atoms: _324  and  _327
REMARK  135  A    between atoms: _327  and  _328
REMARK  136  A    between atoms: _331  and  _333
REMARK  137  A    between atoms: _333  and  _334
REMARK  138  A    between atoms: _333  and  _336
REMARK  139  A    between atoms: _339  and  _341
REMARK  140  A    between atoms: _341  and  _342
REMARK  141  A    between atoms: _341  and  _344
REMARK  142  A    between atoms: _344  and  _345
REMARK  143  A    between atoms: _348  and  _350
REMARK  144  A    between atoms: _350  and  _351
REMARK  145  A    between atoms: _350  and  _353
REMARK  146  A    between atoms: _353  and  _354
REMARK  147  A    between atoms: _354  and  _355
REMARK  148  A    between atoms: _355  and  _356
REMARK  149  A    between atoms: _356  and  _357
REMARK  150  A    between atoms: _361  and  _363
REMARK  151  A    between atoms: _363  and  _364
REMARK  152  A    between atoms: _363  and  _366
REMARK  153  A    between atoms: _366  and  _367
REMARK  154  A    between atoms: _370  and  _372
REMARK  155  A    between atoms: _372  and  _373
REMARK  156  A    between atoms: _375  and  _377
REMARK  157  A    between atoms: _377  and  _378
REMARK  158  A    between atoms: _380  and  _382
REMARK  159  A    between atoms: _382  and  _383
REMARK  160  A    between atoms: _382  and  _385
REMARK  161  A    between atoms: _385  and  _386
REMARK  162  A    between atoms: _389  and  _391
REMARK  163  A    between atoms: _391  and  _392
REMARK  164  A    between atoms: _394  and  _396
REMARK  165  A    between atoms: _396  and  _397
REMARK  166  A    between atoms: _399  and  _401
REMARK  167  A    between atoms: _401  and  _402
REMARK  168  A    between atoms: _401  and  _404
REMARK  169  A    between atoms: _404  and  _405
REMARK  170  A    between atoms: _411  and  _413
REMARK  171  A    between atoms: _413  and  _414
REMARK  172  A    between atoms: _413  and  _416
REMARK  173  A    between atoms: _416  and  _417
REMARK  174  A    between atoms: _420  and  _422
REMARK  175  A    between atoms: _422  and  _423
REMARK  176  A    between atoms: _422  and  _425
REMARK  177  A    between atoms: _425  and  _426
REMARK  178  A    between atoms: _429  and  _431
REMARK  179  A    between atoms: _431  and  _432
REMARK  180  A    between atoms: _431  and  _434
REMARK  181  A    between atoms: _434  and  _435
REMARK  182  A    between atoms: _439  and  _440
REMARK  183  A    between atoms: _445  and  _447
REMARK  184  A    between atoms: _447  and  _448
REMARK  185  A    between atoms: _447  and  _450
REMARK  186  A    between atoms: _453  and  _455
REMARK  187  A    between atoms: _455  and  _456
REMARK  188  A    between atoms: _455  and  _458
REMARK  189  A    between atoms: _458  and  _459
REMARK  190  A    between atoms: _464  and  _466
REMARK  191  A    between atoms: _466  and  _467
REMARK  192  A    between atoms: _466  and  _469
REMARK  193  A    between atoms: _469  and  _470
REMARK  194  A    between atoms: _473  and  _475
REMARK  195  A    between atoms: _475  and  _476
REMARK  196  A    between atoms: _475  and  _478
REMARK  197  A    between atoms: _478  and  _479
REMARK  198  A    between atoms: _482  and  _484
REMARK  199  A    between atoms: _484  and  _485
REMARK  200  A    between atoms: _487  and  _489
REMARK  201  A    between atoms: _489  and  _490
REMARK  202  A    between atoms: _489  and  _492
REMARK  203  A    between atoms: _492  and  _493
REMARK  204  A    between atoms: _493  and  _494
REMARK  205  A    between atoms: _494  and  _495
REMARK                            x       y       z     vdW  Elec       q    Type
REMARK                         _______ _______ _______ _____ _____    ______ ____
ROOT
ATOM      1  CA  ILE A   5      13.791  22.690  -3.389  0.00  0.00    +0.149 C 
ENDROOT
BRANCH   1   3
ATOM      2  C   ASN A   4      11.669  22.650  -4.618  0.00  0.00    +0.241 C 
ATOM      3  N   ILE A   5      12.749  22.031  -4.178  0.00  0.00    -0.297 N 
ATOM      4  H   ILE A   5      12.865  21.023  -4.404  0.00  0.00    +0.150 HD
ATOM      5  O   ASN A   4      11.520  23.856  -4.491  0.00  0.00    -0.273 OA
BRANCH   2   6
ATOM      6  CA  ASN A   4      10.630  21.811  -5.364  0.00  0.00    +0.158 C 
BRANCH   6   9
ATOM      7  C   VAL A   3       9.056  21.857  -3.581  0.00  0.00    +0.241 C 
ATOM      8  O   VAL A   3       9.812  21.223  -2.837  0.00  0.00    -0.273 OA
ATOM      9  N   ASN A   4       9.369  22.196  -4.830  0.00  0.00    -0.297 N 
ATOM     10  H   ASN A   4       8.697  22.738  -5.410  0.00  0.00    +0.150 HD
BRANCH   7  11
ATOM     11  CA  VAL A   3       7.738  22.382  -3.040  0.00  0.00    +0.149 C 
BRANCH  11  13
ATOM     12  C   PRO A   2       5.943  21.300  -1.745  0.00  0.00    +0.241 C 
ATOM     13  N   VAL A   3       7.241  21.515  -1.976  0.00  0.00    -0.297 N 
ATOM     14  H   VAL A   3       7.935  21.039  -1.365  0.00  0.00    +0.150 HD
ATOM     15  O   PRO A   2       5.066  21.856  -2.375  0.00  0.00    -0.273 OA
BRANCH  12  21
ATOM     16  C   THR A   1       6.945  18.422  -1.080  0.00  0.00    +0.244 C 
ATOM     17  N   PRO A   2       6.651  19.433  -0.228  0.00  0.00    -0.272 N 
ATOM     18  CD  PRO A   2       7.172  19.713   1.123  0.00  0.00    +0.094 C 
ATOM     19  CG  PRO A   2       6.031  20.456   1.751  0.00  0.00    +0.024 C 
ATOM     20  CB  PRO A   2       5.458  21.223   0.713  0.00  0.00    +0.031 C 
ATOM     21  CA  PRO A   2       5.589  20.388  -0.562  0.00  0.00    +0.152 C 
ATOM     22  O   THR A   1       6.358  18.299  -2.152  0.00  0.00    -0.273 OA
BRANCH  16  23
ATOM     23  CA  THR A   1       8.050  17.462  -0.678  0.00  0.00    +0.172 C 
BRANCH  23  24
ATOM     24  N   THR A   1       7.694  16.214  -1.228  0.00  0.00    -0.236 NA
ATOM     25  H   THR A   1       7.806  16.040  -2.247  0.00  0.00    +0.142 HD
ENDBRANCH  23  24
BRANCH  23  26
ATOM     26  CB  THR A   1       9.438  17.876  -1.224  0.00  0.00    +0.135 C 
ATOM     27  CG2 THR A   1       9.445  17.881  -2.733  0.00  0.00    +0.034 C 
BRANCH  26  28
ATOM     28  OG1 THR A   1       9.738  19.181  -0.764  0.00  0.00    -0.383 OA
ATOM     29  HG1 THR A   1       9.047  19.811  -1.089  0.00  0.00    +0.210 HD
ENDBRANCH  26  28
ENDBRANCH  23  26
ENDBRANCH  16  23
ENDBRANCH  12  21
ENDBRANCH  11  13
BRANCH  11  30
ATOM     30  CB  VAL A   3       8.058  23.862  -2.512  0.00  0.00    +0.027 C 
ATOM     31  CG2 VAL A   3       8.933  23.845  -1.245  0.00  0.00    +0.002 C 
ATOM     32  CG1 VAL A   3       6.792  24.639  -2.296  0.00  0.00    +0.002 C 
ENDBRANCH  11  30
ENDBRANCH   7  11
ENDBRANCH   6   9
BRANCH   6  33
ATOM     33  CB  ASN A   4      10.694  22.099  -6.844  0.00  0.00    +0.114 C 
BRANCH  33  34
ATOM     34  CG  ASN A   4       9.816  21.194  -7.651  0.00  0.00    +0.222 C 
ATOM     35  OD1 ASN A   4       9.724  19.980  -7.394  0.00  0.00    -0.275 OA
ATOM     36  ND2 ASN A   4       9.209  21.748  -8.669  0.00  0.00    -0.329 N 
ATOM     37 HD21 ASN A   4       9.315  22.767  -8.845  0.00  0.00    +0.145 HD
ATOM     38 HD22 ASN A   4       8.621  21.169  -9.302  0.00  0.00    +0.145 HD
ENDBRANCH  33  34
ENDBRANCH   6  33
ENDBRANCH   2   6
ENDBRANCH   1   3
BRANCH   1  39
ATOM     39  C   ILE A   5      15.163  22.466  -3.983  0.00  0.00    +0.241 C 
ATOM     40  O   ILE A   5      15.541  21.339  -4.197  0.00  0.00    -0.273 OA
ATOM     41  N   ILE A   6      15.892  23.549  -4.249  0.00  0.00    -0.297 N 
ATOM     42  H   ILE A   6      15.460  24.481  -4.086  0.00  0.00    +0.150 HD
BRANCH  41  43
ATOM     43  CA  ILE A   6      17.259  23.506  -4.755  0.00  0.00    +0.149 C 
BRANCH  43  44
ATOM     44  C   ILE A   6      18.099  23.697  -3.498  0.00  0.00    +0.241 C 
ATOM     45  O   ILE A   6      17.985  24.712  -2.829  0.00  0.00    -0.273 OA
ATOM     46  N   GLY A   7      18.933  22.731  -3.173  0.00  0.00    -0.295 N 
ATOM     47  H   GLY A   7      19.015  21.890  -3.780  0.00  0.00    +0.150 HD
BRANCH  46  48
ATOM     48  CA  GLY A   7      19.737  22.836  -1.972  0.00  0.00    +0.176 C 
BRANCH  48  49
ATOM     49  C   GLY A   7      21.209  23.161  -2.199  0.00  0.00    +0.243 C 
ATOM     50  N   ARG A   8      21.975  23.108  -1.125  0.00  0.00    -0.298 N 
ATOM     51  H   ARG A   8      21.587  22.793  -0.213  0.00  0.00    +0.150 HD
ATOM     52  O   GLY A   7      21.699  23.338  -3.302  0.00  0.00    -0.273 OA
BRANCH  50  53
ATOM     53  CA  ARG A   8      23.353  23.493  -1.240  0.00  0.00    +0.137 C 
BRANCH  53  54
ATOM     54  C   ARG A   8      24.220  22.726  -2.201  0.00  0.00    +0.227 C 
ATOM     55  O   ARG A   8      25.192  23.253  -2.749  0.00  0.00    -0.286 OA
ENDBRANCH  53  54
BRANCH  53  56
ATOM     56  CB  ARG A   8      23.967  23.479   0.105  0.00  0.00    +0.031 C 
BRANCH  56  57
ATOM     57  CG  ARG A   8      23.323  24.466   1.098  0.00  0.00    +0.045 C 
BRANCH  57  58
ATOM     58  CD  ARG A   8      24.276  24.635   2.357  0.00  0.00    +0.174 C 
BRANCH  58  59
ATOM     59  NE  ARG A   8      24.341  23.398   3.129  0.00  0.00    -0.265 N 
ATOM     60  HE  ARG A   8      23.504  23.149   3.695  0.00  0.00    +0.259 HD
ATOM     61  CZ  ARG A   8      25.367  22.564   3.175  0.00  0.00    +0.342 C 
ATOM     62  NH2 ARG A   8      25.189  21.391   3.774  0.00  0.00    -0.292 N 
ATOM     63 HH21 ARG A   8      24.265  21.153   4.188  0.00  0.00    +0.255 HD
ATOM     64 HH22 ARG A   8      25.974  20.711   3.829  0.00  0.00    +0.255 HD
ATOM     65  NH1 ARG A   8      26.481  22.824   2.526  0.00  0.00    -0.292 N 
ATOM     66 HH11 ARG A   8      27.278  22.157   2.573  0.00  0.00    +0.255 HD
ATOM     67 HH12 ARG A   8      26.565  23.696   1.966  0.00  0.00    +0.255 HD
ENDBRANCH  58  59
ENDBRANCH  57  58
ENDBRANCH  56  57
ENDBRANCH  53  56
ENDBRANCH  50  53
ENDBRANCH  48  49
ENDBRANCH  46  48
ENDBRANCH  43  44
BRANCH  43  68
ATOM     68  CB  ILE A   6      17.531  24.681  -5.731  0.00  0.00    +0.027 C 
ATOM     69  CG2 ILE A   6      18.932  24.571  -6.269  0.00  0.00    +0.002 C 
BRANCH  68  70
ATOM     70  CG1 ILE A   6      16.615  24.567  -6.968  0.00  0.00    +0.002 C 
ATOM     71  CD1 ILE A   6      16.838  23.182  -7.698  0.00  0.00    +0.000 C 
ENDBRANCH  68  70
ENDBRANCH  43  68
ENDBRANCH  41  43
ENDBRANCH   1  39
BRANCH   1  72
ATOM     72  CB  ILE A   5      13.795  22.115  -1.914  0.00  0.00    +0.027 C 
ATOM     73  CG2 ILE A   5      15.017  22.563  -1.100  0.00  0.00    +0.002 C 
BRANCH  72  74
ATOM     74  CG1 ILE A   5      12.616  22.683  -1.124  0.00  0.00    +0.002 C 
ATOM     75  CD1 ILE A   5      12.259  21.714   0.065  0.00  0.00    +0.000 C 
ENDBRANCH  72  74
ENDBRANCH   1  72
TORSDOF 28
REMARK  Name = ../refined-set-2016/1ajx/1ajx_pocket.pdb
REMARK  205 active torsions:
REMARK  status: ('A' for Active; 'I' for Inactive)
REMARK    1  A    between atoms: _1  and  _3
REMARK    2  A    between atoms: _3  and  _4
REMARK    3  A    between atoms: _3  and  _6
REMARK    4  A    between atoms: _6  and  _7
REMARK    5  A    between atoms: _7  and  _8
REMARK    6  A    between atoms: _8  and  _9
REMARK    7  A    between atoms: _18  and  _20
REMARK    8  A    between atoms: _20  and  _21
REMARK    9  A    between atoms: _20  and  _23
REMARK   10  A    between atoms: _23  and  _24
REMARK   11  A    between atoms: _27  and  _29
REMARK   12  A    between atoms: _29  and  _30
REMARK   13  A    between atoms: _29  and  _32
REMARK   14  A    between atoms: _32  and  _33
REMARK   15  A    between atoms: _36  and  _38
REMARK   16  A    between atoms: _38  and  _39
REMARK   17  A    between atoms: _38  and  _41
REMARK   18  A    between atoms: _41  and  _42
REMARK   19  A    between atoms: _45  and  _47
REMARK   20  A    between atoms: _47  and  _48
REMARK   21  A    between atoms: _47  and  _50
REMARK   22  A    between atoms: _50  and  _51
REMARK   23  A    between atoms: _54  and  _56
REMARK   24  A    between atoms: _56  and  _57
REMARK   25  A    between atoms: _59  and  _61
REMARK   26  A    between atoms: _61  and  _62
REMARK   27  A    between atoms: _65  and  _67
REMARK   28  A    between atoms: _67  and  _68
REMARK   29  A    between atoms: _67  and  _70
REMARK   30  A    between atoms: _70  and  _71
REMARK   31  A    between atoms: _74  and  _76
REMARK   32  A    between atoms: _76  and  _77
REMARK   33  A    between atoms: _76  and  _79
REMARK   34  A    between atoms: _79  and  _80
REMARK   35  A    between atoms: _83  and  _85
REMARK   36  A    between atoms: _85  and  _86
REMARK   37  A    between atoms: _85  and  _88
REMARK   38  A    between atoms: _88  and  _89
REMARK   39  A    between atoms: _92  and  _94
REMARK   40  A    between atoms: _94  and  _95
REMARK   41  A    between atoms: _94  and  _97
REMARK   42  A    between atoms: _100  and  _102
REMARK   43  A    between atoms: _102  and  _103
REMARK   44  A    between atoms: _102  and  _105
REMARK   45  A    between atoms: _105  and  _106
REMARK   46  A    between atoms: _109  and  _111
REMARK   47  A    between atoms: _111  and  _112
REMARK   48  A    between atoms: _114  and  _116
REMARK   49  A    between atoms: _116  and  _117
REMARK   50  A    between atoms: _119  and  _121
REMARK   51  A    between atoms: _121  and  _122
REMARK   52  A    between atoms: _121  and  _124
REMARK   53  A    between atoms: _124  and  _125
REMARK   54  A    between atoms: _128  and  _130
REMARK   55  A    between atoms: _130  and  _131
REMARK   56  A    between atoms: _133  and  _135
REMARK   57  A    between atoms: _135  and  _136
REMARK   58  A    between atoms: _138  and  _140
REMARK   59  A    between atoms: _140  and  _141
REMARK   60  A    between atoms: _140  and  _143
REMARK   61  A    between atoms: _143  and  _144
REMARK   62  A    between atoms: _147  and  _149
REMARK   63  A    between atoms: _149  and  _150
REMARK   64  A    between atoms: _149  and  _152
REMARK   65  A    between atoms: _152  and  _153
REMARK   66  A    between atoms: _156  and  _158
REMARK   67  A    between atoms: _158  and  _159
REMARK   68  A    between atoms: _158  and  _161
REMARK   69  A    between atoms: _161  and  _162
REMARK   70  A    between atoms: _166  and  _167
REMARK   71  A    between atoms: _172  and  _174
REMARK   72  A    between atoms: _174  and  _175
REMARK   73  A    between atoms: _174  and  _177
REMARK   74  A    between atoms: _180  and  _182
REMARK   75  A    between atoms: _182  and  _183
REMARK   76  A    between atoms: _182  and  _185
REMARK   77  A    between atoms: _185  and  _186
REMARK   78  A    between atoms: _191  and  _193
REMARK   79  A    between atoms: _193  and  _194
REMARK   80  A    between atoms: _193  and  _196
REMARK   81  A    between atoms: _196  and  _197
REMARK   82  A    between atoms: _200  and  _202
REMARK   83  A    between atoms: _202  and  _203
REMARK   84  A    between atoms: _202  and  _205
REMARK   85  A    between atoms: _205  and  _206
REMARK   86  A    between atoms: _209  and  _211
REMARK   87  A    between atoms: _211  and  _212
REMARK   88  A    between atoms: _214  and  _216
REMARK   89  A    between atoms: _216  and  _217
REMARK   90  A    between atoms: _216  and  _219
REMARK   91  A    between atoms: _219  and  _220
REMARK   92  A    between atoms: _220  and  _221
REMARK   93  A    between atoms: _221  and  _222
REMARK   94  A    between atoms: _231  and  _233
REMARK   95  A    between atoms: _233  and  _234
REMARK   96  A    between atoms: _233  and  _236
REMARK   97  A    between atoms: _236  and  _237
REMARK   98  A    between atoms: _237  and  _238
REMARK   99  A    between atoms: _238  and  _239
REMARK  100  A    between atoms: _248  and  _250
REMARK  101  A    between atoms: _250  and  _251
REMARK  102  A    between atoms: _250  and  _253
REMARK  103  A    between atoms: _253  and  _254
REMARK  104  A    between atoms: _257  and  _259
REMARK  105  A    between atoms: _259  and  _260
REMARK  106  A    between atoms: _259  and  _262
REMARK  107  A    between atoms: _262  and  _263
REMARK  108  A    between atoms: _266  and  _268
REMARK  109  A    between atoms: _268  and  _269
REMARK  110  A    between atoms: _268  and  _271
REMARK  111  A    between atoms: _271  and  _272
REMARK  112  A    between atoms: _275  and  _277
REMARK  113  A    between atoms: _277  and  _278
REMARK  114  A    between atoms: _277  and  _280
REMARK  115  A    between atoms: _280  and  _281
REMARK  116  A    between atoms: _284  and  _286
REMARK  117  A    between atoms: _286  and  _287
REMARK  118  A    between atoms: _286  and  _289
REMARK  119  A    between atoms: _289  and  _290
REMARK  120  A    between atoms: _293  and  _295
REMARK  121  A    between atoms: _295  and  _296
REMARK  122  A    between atoms: _298  and  _300
REMARK  123  A    between atoms: _300  and  _301
REMARK  124  A    between atoms: _304  and  _306
REMARK  125  A    between atoms: _306  and  _307
REMARK  126  A    between atoms: _306  and  _309
REMARK  127  A    between atoms: _309  and  _310
REMARK  128  A    between atoms: _313  and  _315
REMARK  129  A    between atoms: _315  and  _316
REMARK  130  A    between atoms: _315  and  _318
REMARK  131  A    between atoms: _318  and  _319
REMARK  132  A    between atoms: _322  and  _324
REMARK  133  A    between atoms: _324  and  _325
REMARK  134  A    between atoms: _324  and  _327
REMARK  135  A    between atoms: _327  and  _328
REMARK  136  A    between atoms: _331  and  _333
REMARK  137  A    between atoms: _333  and  _334
REMARK  138  A    between atoms: _333  and  _336
REMARK  139  A    between atoms: _339  and  _341
REMARK  140  A    between atoms: _341  and  _342
REMARK  141  A    between atoms: _341  and  _344
REMARK  142  A    between atoms: _344  and  _345
REMARK  143  A    between atoms: _348  and  _350
REMARK  144  A    between atoms: _350  and  _351
REMARK  145  A    between atoms: _350  and  _353
REMARK  146  A    between atoms: _353  and  _354
REMARK  147  A    between atoms: _354  and  _355
REMARK  148  A    between atoms: _355  and  _356
REMARK  149  A    between atoms: _356  and  _357
REMARK  150  A    between atoms: _361  and  _363
REMARK  151  A    between atoms: _363  and  _364
REMARK  152  A    between atoms: _363  and  _366
REMARK  153  A    between atoms: _366  and  _367
REMARK  154  A    between atoms: _370  and  _372
REMARK  155  A    between atoms: _372  and  _373
REMARK  156  A    between atoms: _375  and  _377
REMARK  157  A    between atoms: _377  and  _378
REMARK  158  A    between atoms: _380  and  _382
REMARK  159  A    between atoms: _382  and  _383
REMARK  160  A    between atoms: _382  and  _385
REMARK  161  A    between atoms: _385  and  _386
REMARK  162  A    between atoms: _389  and  _391
REMARK  163  A    between atoms: _391  and  _392
REMARK  164  A    between atoms: _394  and  _396
REMARK  165  A    between atoms: _396  and  _397
REMARK  166  A    between atoms: _399  and  _401
REMARK  167  A    between atoms: _401  and  _402
REMARK  168  A    between atoms: _401  and  _404
REMARK  169  A    between atoms: _404  and  _405
REMARK  170  A    between atoms: _411  and  _413
REMARK  171  A    between atoms: _413  and  _414
REMARK  172  A    between atoms: _413  and  _416
REMARK  173  A    between atoms: _416  and  _417
REMARK  174  A    between atoms: _420  and  _422
REMARK  175  A    between atoms: _422  and  _423
REMARK  176  A    between atoms: _422  and  _425
REMARK  177  A    between atoms: _425  and  _426
REMARK  178  A    between atoms: _429  and  _431
REMARK  179  A    between atoms: _431  and  _432
REMARK  180  A    between atoms: _431  and  _434
REMARK  181  A    between atoms: _434  and  _435
REMARK  182  A    between atoms: _439  and  _440
REMARK  183  A    between atoms: _445  and  _447
REMARK  184  A    between atoms: _447  and  _448
REMARK  185  A    between atoms: _447  and  _450
REMARK  186  A    between atoms: _453  and  _455
REMARK  187  A    between atoms: _455  and  _456
REMARK  188  A    between atoms: _455  and  _458
REMARK  189  A    between atoms: _458  and  _459
REMARK  190  A    between atoms: _464  and  _466
REMARK  191  A    between atoms: _466  and  _467
REMARK  192  A    between atoms: _466  and  _469
REMARK  193  A    between atoms: _469  and  _470
REMARK  194  A    between atoms: _473  and  _475
REMARK  195  A    between atoms: _475  and  _476
REMARK  196  A    between atoms: _475  and  _478
REMARK  197  A    between atoms: _478  and  _479
REMARK  198  A    between atoms: _482  and  _484
REMARK  199  A    between atoms: _484  and  _485
REMARK  200  A    between atoms: _487  and  _489
REMARK  201  A    between atoms: _489  and  _490
REMARK  202  A    between atoms: _489  and  _492
REMARK  203  A    between atoms: _492  and  _493
REMARK  204  A    between atoms: _493  and  _494
REMARK  205  A    between atoms: _494  and  _495
REMARK                            x       y       z     vdW  Elec       q    Type
REMARK                         _______ _______ _______ _____ _____    ______ ____
ROOT
ATOM      1  O   HOH     1       4.007  26.157   7.317  0.00  0.00    +0.000 OA
ENDROOT
TORSDOF 0
REMARK  Name = ../refined-set-2016/1ajx/1ajx_pocket.pdb
REMARK  205 active torsions:
REMARK  status: ('A' for Active; 'I' for Inactive)
REMARK    1  A    between atoms: _1  and  _3
REMARK    2  A    between atoms: _3  and  _4
REMARK    3  A    between atoms: _3  and  _6
REMARK    4  A    between atoms: _6  and  _7
REMARK    5  A    between atoms: _7  and  _8
REMARK    6  A    between atoms: _8  and  _9
REMARK    7  A    between atoms: _18  and  _20
REMARK    8  A    between atoms: _20  and  _21
REMARK    9  A    between atoms: _20  and  _23
REMARK   10  A    between atoms: _23  and  _24
REMARK   11  A    between atoms: _27  and  _29
REMARK   12  A    between atoms: _29  and  _30
REMARK   13  A    between atoms: _29  and  _32
REMARK   14  A    between atoms: _32  and  _33
REMARK   15  A    between atoms: _36  and  _38
REMARK   16  A    between atoms: _38  and  _39
REMARK   17  A    between atoms: _38  and  _41
REMARK   18  A    between atoms: _41  and  _42
REMARK   19  A    between atoms: _45  and  _47
REMARK   20  A    between atoms: _47  and  _48
REMARK   21  A    between atoms: _47  and  _50
REMARK   22  A    between atoms: _50  and  _51
REMARK   23  A    between atoms: _54  and  _56
REMARK   24  A    between atoms: _56  and  _57
REMARK   25  A    between atoms: _59  and  _61
REMARK   26  A    between atoms: _61  and  _62
REMARK   27  A    between atoms: _65  and  _67
REMARK   28  A    between atoms: _67  and  _68
REMARK   29  A    between atoms: _67  and  _70
REMARK   30  A    between atoms: _70  and  _71
REMARK   31  A    between atoms: _74  and  _76
REMARK   32  A    between atoms: _76  and  _77
REMARK   33  A    between atoms: _76  and  _79
REMARK   34  A    between atoms: _79  and  _80
REMARK   35  A    between atoms: _83  and  _85
REMARK   36  A    between atoms: _85  and  _86
REMARK   37  A    between atoms: _85  and  _88
REMARK   38  A    between atoms: _88  and  _89
REMARK   39  A    between atoms: _92  and  _94
REMARK   40  A    between atoms: _94  and  _95
REMARK   41  A    between atoms: _94  and  _97
REMARK   42  A    between atoms: _100  and  _102
REMARK   43  A    between atoms: _102  and  _103
REMARK   44  A    between atoms: _102  and  _105
REMARK   45  A    between atoms: _105  and  _106
REMARK   46  A    between atoms: _109  and  _111
REMARK   47  A    between atoms: _111  and  _112
REMARK   48  A    between atoms: _114  and  _116
REMARK   49  A    between atoms: _116  and  _117
REMARK   50  A    between atoms: _119  and  _121
REMARK   51  A    between atoms: _121  and  _122
REMARK   52  A    between atoms: _121  and  _124
REMARK   53  A    between atoms: _124  and  _125
REMARK   54  A    between atoms: _128  and  _130
REMARK   55  A    between atoms: _130  and  _131
REMARK   56  A    between atoms: _133  and  _135
REMARK   57  A    between atoms: _135  and  _136
REMARK   58  A    between atoms: _138  and  _140
REMARK   59  A    between atoms: _140  and  _141
REMARK   60  A    between atoms: _140  and  _143
REMARK   61  A    between atoms: _143  and  _144
REMARK   62  A    between atoms: _147  and  _149
REMARK   63  A    between atoms: _149  and  _150
REMARK   64  A    between atoms: _149  and  _152
REMARK   65  A    between atoms: _152  and  _153
REMARK   66  A    between atoms: _156  and  _158
REMARK   67  A    between atoms: _158  and  _159
REMARK   68  A    between atoms: _158  and  _161
REMARK   69  A    between atoms: _161  and  _162
REMARK   70  A    between atoms: _166  and  _167
REMARK   71  A    between atoms: _172  and  _174
REMARK   72  A    between atoms: _174  and  _175
REMARK   73  A    between atoms: _174  and  _177
REMARK   74  A    between atoms: _180  and  _182
REMARK   75  A    between atoms: _182  and  _183
REMARK   76  A    between atoms: _182  and  _185
REMARK   77  A    between atoms: _185  and  _186
REMARK   78  A    between atoms: _191  and  _193
REMARK   79  A    between atoms: _193  and  _194
REMARK   80  A    between atoms: _193  and  _196
REMARK   81  A    between atoms: _196  and  _197
REMARK   82  A    between atoms: _200  and  _202
REMARK   83  A    between atoms: _202  and  _203
REMARK   84  A    between atoms: _202  and  _205
REMARK   85  A    between atoms: _205  and  _206
REMARK   86  A    between atoms: _209  and  _211
REMARK   87  A    between atoms: _211  and  _212
REMARK   88  A    between atoms: _214  and  _216
REMARK   89  A    between atoms: _216  and  _217
REMARK   90  A    between atoms: _216  and  _219
REMARK   91  A    between atoms: _219  and  _220
REMARK   92  A    between atoms: _220  and  _221
REMARK   93  A    between atoms: _221  and  _222
REMARK   94  A    between atoms: _231  and  _233
REMARK   95  A    between atoms: _233  and  _234
REMARK   96  A    between atoms: _233  and  _236
REMARK   97  A    between atoms: _236  and  _237
REMARK   98  A    between atoms: _237  and  _238
REMARK   99  A    between atoms: _238  and  _239
REMARK  100  A    between atoms: _248  and  _250
REMARK  101  A    between atoms: _250  and  _251
REMARK  102  A    between atoms: _250  and  _253
REMARK  103  A    between atoms: _253  and  _254
REMARK  104  A    between atoms: _257  and  _259
REMARK  105  A    between atoms: _259  and  _260
REMARK  106  A    between atoms: _259  and  _262
REMARK  107  A    between atoms: _262  and  _263
REMARK  108  A    between atoms: _266  and  _268
REMARK  109  A    between atoms: _268  and  _269
REMARK  110  A    between atoms: _268  and  _271
REMARK  111  A    between atoms: _271  and  _272
REMARK  112  A    between atoms: _275  and  _277
REMARK  113  A    between atoms: _277  and  _278
REMARK  114  A    between atoms: _277  and  _280
REMARK  115  A    between atoms: _280  and  _281
REMARK  116  A    between atoms: _284  and  _286
REMARK  117  A    between atoms: _286  and  _287
REMARK  118  A    between atoms: _286  and  _289
REMARK  119  A    between atoms: _289  and  _290
REMARK  120  A    between atoms: _293  and  _295
REMARK  121  A    between atoms: _295  and  _296
REMARK  122  A    between atoms: _298  and  _300
REMARK  123  A    between atoms: _300  and  _301
REMARK  124  A    between atoms: _304  and  _306
REMARK  125  A    between atoms: _306  and  _307
REMARK  126  A    between atoms: _306  and  _309
REMARK  127  A    between atoms: _309  and  _310
REMARK  128  A    between atoms: _313  and  _315
REMARK  129  A    between atoms: _315  and  _316
REMARK  130  A    between atoms: _315  and  _318
REMARK  131  A    between atoms: _318  and  _319
REMARK  132  A    between atoms: _322  and  _324
REMARK  133  A    between atoms: _324  and  _325
REMARK  134  A    between atoms: _324  and  _327
REMARK  135  A    between atoms: _327  and  _328
REMARK  136  A    between atoms: _331  and  _333
REMARK  137  A    between atoms: _333  and  _334
REMARK  138  A    between atoms: _333  and  _336
REMARK  139  A    between atoms: _339  and  _341
REMARK  140  A    between atoms: _341  and  _342
REMARK  141  A    between atoms: _341  and  _344
REMARK  142  A    between atoms: _344  and  _345
REMARK  143  A    between atoms: _348  and  _350
REMARK  144  A    between atoms: _350  and  _351
REMARK  145  A    between atoms: _350  and  _353
REMARK  146  A    between atoms: _353  and  _354
REMARK  147  A    between atoms: _354  and  _355
REMARK  148  A    between atoms: _355  and  _356
REMARK  149  A    between atoms: _356  and  _357
REMARK  150  A    between atoms: _361  and  _363
REMARK  151  A    between atoms: _363  and  _364
REMARK  152  A    between atoms: _363  and  _366
REMARK  153  A    between atoms: _366  and  _367
REMARK  154  A    between atoms: _370  and  _372
REMARK  155  A    between atoms: _372  and  _373
REMARK  156  A    between atoms: _375  and  _377
REMARK  157  A    between atoms: _377  and  _378
REMARK  158  A    between atoms: _380  and  _382
REMARK  159  A    between atoms: _382  and  _383
REMARK  160  A    between atoms: _382  and  _385
REMARK  161  A    between atoms: _385  and  _386
REMARK  162  A    between atoms: _389  and  _391
REMARK  163  A    between atoms: _391  and  _392
REMARK  164  A    between atoms: _394  and  _396
REMARK  165  A    between atoms: _396  and  _397
REMARK  166  A    between atoms: _399  and  _401
REMARK  167  A    between atoms: _401  and  _402
REMARK  168  A    between atoms: _401  and  _404
REMARK  169  A    between atoms: _404  and  _405
REMARK  170  A    between atoms: _411  and  _413
REMARK  171  A    between atoms: _413  and  _414
REMARK  172  A    between atoms: _413  and  _416
REMARK  173  A    between atoms: _416  and  _417
REMARK  174  A    between atoms: _420  and  _422
REMARK  175  A    between atoms: _422  and  _423
REMARK  176  A    between atoms: _422  and  _425
REMARK  177  A    between atoms: _425  and  _426
REMARK  178  A    between atoms: _429  and  _431
REMARK  179  A    between atoms: _431  and  _432
REMARK  180  A    between atoms: _431  and  _434
REMARK  181  A    between atoms: _434  and  _435
REMARK  182  A    between atoms: _439  and  _440
REMARK  183  A    between atoms: _445  and  _447
REMARK  184  A    between atoms: _447  and  _448
REMARK  185  A    between atoms: _447  and  _450
REMARK  186  A    between atoms: _453  and  _455
REMARK  187  A    between atoms: _455  and  _456
REMARK  188  A    between atoms: _455  and  _458
REMARK  189  A    between atoms: _458  and  _459
REMARK  190  A    between atoms: _464  and  _466
REMARK  191  A    between atoms: _466  and  _467
REMARK  192  A    between atoms: _466  and  _469
REMARK  193  A    between atoms: _469  and  _470
REMARK  194  A    between atoms: _473  and  _475
REMARK  195  A    between atoms: _475  and  _476
REMARK  196  A    between atoms: _475  and  _478
REMARK  197  A    between atoms: _478  and  _479
REMARK  198  A    between atoms: _482  and  _484
REMARK  199  A    between atoms: _484  and  _485
REMARK  200  A    between atoms: _487  and  _489
REMARK  201  A    between atoms: _489  and  _490
REMARK  202  A    between atoms: _489  and  _492
REMARK  203  A    between atoms: _492  and  _493
REMARK  204  A    between atoms: _493  and  _494
REMARK  205  A    between atoms: _494  and  _495
REMARK                            x       y       z     vdW  Elec       q    Type
REMARK                         _______ _______ _______ _____ _____    ______ ____
ROOT
ATOM      1  O   HOH     1       8.598  28.384   4.635  0.00  0.00    +0.000 OA
ENDROOT
TORSDOF 0
REMARK  Name = ../refined-set-2016/1ajx/1ajx_pocket.pdb
REMARK  205 active torsions:
REMARK  status: ('A' for Active; 'I' for Inactive)
REMARK    1  A    between atoms: _1  and  _3
REMARK    2  A    between atoms: _3  and  _4
REMARK    3  A    between atoms: _3  and  _6
REMARK    4  A    between atoms: _6  and  _7
REMARK    5  A    between atoms: _7  and  _8
REMARK    6  A    between atoms: _8  and  _9
REMARK    7  A    between atoms: _18  and  _20
REMARK    8  A    between atoms: _20  and  _21
REMARK    9  A    between atoms: _20  and  _23
REMARK   10  A    between atoms: _23  and  _24
REMARK   11  A    between atoms: _27  and  _29
REMARK   12  A    between atoms: _29  and  _30
REMARK   13  A    between atoms: _29  and  _32
REMARK   14  A    between atoms: _32  and  _33
REMARK   15  A    between atoms: _36  and  _38
REMARK   16  A    between atoms: _38  and  _39
REMARK   17  A    between atoms: _38  and  _41
REMARK   18  A    between atoms: _41  and  _42
REMARK   19  A    between atoms: _45  and  _47
REMARK   20  A    between atoms: _47  and  _48
REMARK   21  A    between atoms: _47  and  _50
REMARK   22  A    between atoms: _50  and  _51
REMARK   23  A    between atoms: _54  and  _56
REMARK   24  A    between atoms: _56  and  _57
REMARK   25  A    between atoms: _59  and  _61
REMARK   26  A    between atoms: _61  and  _62
REMARK   27  A    between atoms: _65  and  _67
REMARK   28  A    between atoms: _67  and  _68
REMARK   29  A    between atoms: _67  and  _70
REMARK   30  A    between atoms: _70  and  _71
REMARK   31  A    between atoms: _74  and  _76
REMARK   32  A    between atoms: _76  and  _77
REMARK   33  A    between atoms: _76  and  _79
REMARK   34  A    between atoms: _79  and  _80
REMARK   35  A    between atoms: _83  and  _85
REMARK   36  A    between atoms: _85  and  _86
REMARK   37  A    between atoms: _85  and  _88
REMARK   38  A    between atoms: _88  and  _89
REMARK   39  A    between atoms: _92  and  _94
REMARK   40  A    between atoms: _94  and  _95
REMARK   41  A    between atoms: _94  and  _97
REMARK   42  A    between atoms: _100  and  _102
REMARK   43  A    between atoms: _102  and  _103
REMARK   44  A    between atoms: _102  and  _105
REMARK   45  A    between atoms: _105  and  _106
REMARK   46  A    between atoms: _109  and  _111
REMARK   47  A    between atoms: _111  and  _112
REMARK   48  A    between atoms: _114  and  _116
REMARK   49  A    between atoms: _116  and  _117
REMARK   50  A    between atoms: _119  and  _121
REMARK   51  A    between atoms: _121  and  _122
REMARK   52  A    between atoms: _121  and  _124
REMARK   53  A    between atoms: _124  and  _125
REMARK   54  A    between atoms: _128  and  _130
REMARK   55  A    between atoms: _130  and  _131
REMARK   56  A    between atoms: _133  and  _135
REMARK   57  A    between atoms: _135  and  _136
REMARK   58  A    between atoms: _138  and  _140
REMARK   59  A    between atoms: _140  and  _141
REMARK   60  A    between atoms: _140  and  _143
REMARK   61  A    between atoms: _143  and  _144
REMARK   62  A    between atoms: _147  and  _149
REMARK   63  A    between atoms: _149  and  _150
REMARK   64  A    between atoms: _149  and  _152
REMARK   65  A    between atoms: _152  and  _153
REMARK   66  A    between atoms: _156  and  _158
REMARK   67  A    between atoms: _158  and  _159
REMARK   68  A    between atoms: _158  and  _161
REMARK   69  A    between atoms: _161  and  _162
REMARK   70  A    between atoms: _166  and  _167
REMARK   71  A    between atoms: _172  and  _174
REMARK   72  A    between atoms: _174  and  _175
REMARK   73  A    between atoms: _174  and  _177
REMARK   74  A    between atoms: _180  and  _182
REMARK   75  A    between atoms: _182  and  _183
REMARK   76  A    between atoms: _182  and  _185
REMARK   77  A    between atoms: _185  and  _186
REMARK   78  A    between atoms: _191  and  _193
REMARK   79  A    between atoms: _193  and  _194
REMARK   80  A    between atoms: _193  and  _196
REMARK   81  A    between atoms: _196  and  _197
REMARK   82  A    between atoms: _200  and  _202
REMARK   83  A    between atoms: _202  and  _203
REMARK   84  A    between atoms: _202  and  _205
REMARK   85  A    between atoms: _205  and  _206
REMARK   86  A    between atoms: _209  and  _211
REMARK   87  A    between atoms: _211  and  _212
REMARK   88  A    between atoms: _214  and  _216
REMARK   89  A    between atoms: _216  and  _217
REMARK   90  A    between atoms: _216  and  _219
REMARK   91  A    between atoms: _219  and  _220
REMARK   92  A    between atoms: _220  and  _221
REMARK   93  A    between atoms: _221  and  _222
REMARK   94  A    between atoms: _231  and  _233
REMARK   95  A    between atoms: _233  and  _234
REMARK   96  A    between atoms: _233  and  _236
REMARK   97  A    between atoms: _236  and  _237
REMARK   98  A    between atoms: _237  and  _238
REMARK   99  A    between atoms: _238  and  _239
REMARK  100  A    between atoms: _248  and  _250
REMARK  101  A    between atoms: _250  and  _251
REMARK  102  A    between atoms: _250  and  _253
REMARK  103  A    between atoms: _253  and  _254
REMARK  104  A    between atoms: _257  and  _259
REMARK  105  A    between atoms: _259  and  _260
REMARK  106  A    between atoms: _259  and  _262
REMARK  107  A    between atoms: _262  and  _263
REMARK  108  A    between atoms: _266  and  _268
REMARK  109  A    between atoms: _268  and  _269
REMARK  110  A    between atoms: _268  and  _271
REMARK  111  A    between atoms: _271  and  _272
REMARK  112  A    between atoms: _275  and  _277
REMARK  113  A    between atoms: _277  and  _278
REMARK  114  A    between atoms: _277  and  _280
REMARK  115  A    between atoms: _280  and  _281
REMARK  116  A    between atoms: _284  and  _286
REMARK  117  A    between atoms: _286  and  _287
REMARK  118  A    between atoms: _286  and  _289
REMARK  119  A    between atoms: _289  and  _290
REMARK  120  A    between atoms: _293  and  _295
REMARK  121  A    between atoms: _295  and  _296
REMARK  122  A    between atoms: _298  and  _300
REMARK  123  A    between atoms: _300  and  _301
REMARK  124  A    between atoms: _304  and  _306
REMARK  125  A    between atoms: _306  and  _307
REMARK  126  A    between atoms: _306  and  _309
REMARK  127  A    between atoms: _309  and  _310
REMARK  128  A    between atoms: _313  and  _315
REMARK  129  A    between atoms: _315  and  _316
REMARK  130  A    between atoms: _315  and  _318
REMARK  131  A    between atoms: _318  and  _319
REMARK  132  A    between atoms: _322  and  _324
REMARK  133  A    between atoms: _324  and  _325
REMARK  134  A    between atoms: _324  and  _327
REMARK  135  A    between atoms: _327  and  _328
REMARK  136  A    between atoms: _331  and  _333
REMARK  137  A    between atoms: _333  and  _334
REMARK  138  A    between atoms: _333  and  _336
REMARK  139  A    between atoms: _339  and  _341
REMARK  140  A    between atoms: _341  and  _342
REMARK  141  A    between atoms: _341  and  _344
REMARK  142  A    between atoms: _344  and  _345
REMARK  143  A    between atoms: _348  and  _350
REMARK  144  A    between atoms: _350  and  _351
REMARK  145  A    between atoms: _350  and  _353
REMARK  146  A    between atoms: _353  and  _354
REMARK  147  A    between atoms: _354  and  _355
REMARK  148  A    between atoms: _355  and  _356
REMARK  149  A    between atoms: _356  and  _357
REMARK  150  A    between atoms: _361  and  _363
REMARK  151  A    between atoms: _363  and  _364
REMARK  152  A    between atoms: _363  and  _366
REMARK  153  A    between atoms: _366  and  _367
REMARK  154  A    between atoms: _370  and  _372
REMARK  155  A    between atoms: _372  and  _373
REMARK  156  A    between atoms: _375  and  _377
REMARK  157  A    between atoms: _377  and  _378
REMARK  158  A    between atoms: _380  and  _382
REMARK  159  A    between atoms: _382  and  _383
REMARK  160  A    between atoms: _382  and  _385
REMARK  161  A    between atoms: _385  and  _386
REMARK  162  A    between atoms: _389  and  _391
REMARK  163  A    between atoms: _391  and  _392
REMARK  164  A    between atoms: _394  and  _396
REMARK  165  A    between atoms: _396  and  _397
REMARK  166  A    between atoms: _399  and  _401
REMARK  167  A    between atoms: _401  and  _402
REMARK  168  A    between atoms: _401  and  _404
REMARK  169  A    between atoms: _404  and  _405
REMARK  170  A    between atoms: _411  and  _413
REMARK  171  A    between atoms: _413  and  _414
REMARK  172  A    between atoms: _413  and  _416
REMARK  173  A    between atoms: _416  and  _417
REMARK  174  A    between atoms: _420  and  _422
REMARK  175  A    between atoms: _422  and  _423
REMARK  176  A    between atoms: _422  and  _425
REMARK  177  A    between atoms: _425  and  _426
REMARK  178  A    between atoms: _429  and  _431
REMARK  179  A    between atoms: _431  and  _432
REMARK  180  A    between atoms: _431  and  _434
REMARK  181  A    between atoms: _434  and  _435
REMARK  182  A    between atoms: _439  and  _440
REMARK  183  A    between atoms: _445  and  _447
REMARK  184  A    between atoms: _447  and  _448
REMARK  185  A    between atoms: _447  and  _450
REMARK  186  A    between atoms: _453  and  _455
REMARK  187  A    between atoms: _455  and  _456
REMARK  188  A    between atoms: _455  and  _458
REMARK  189  A    between atoms: _458  and  _459
REMARK  190  A    between atoms: _464  and  _466
REMARK  191  A    between atoms: _466  and  _467
REMARK  192  A    between atoms: _466  and  _469
REMARK  193  A    between atoms: _469  and  _470
REMARK  194  A    between atoms: _473  and  _475
REMARK  195  A    between atoms: _475  and  _476
REMARK  196  A    between atoms: _475  and  _478
REMARK  197  A    between atoms: _478  and  _479
REMARK  198  A    between atoms: _482  and  _484
REMARK  199  A    between atoms: _484  and  _485
REMARK  200  A    between atoms: _487  and  _489
REMARK  201  A    between atoms: _489  and  _490
REMARK  202  A    between atoms: _489  and  _492
REMARK  203  A    between atoms: _492  and  _493
REMARK  204  A    between atoms: _493  and  _494
REMARK  205  A    between atoms: _494  and  _495
REMARK                            x       y       z     vdW  Elec       q    Type
REMARK                         _______ _______ _______ _____ _____    ______ ____
ROOT
ATOM      1  O   HOH     1       8.997  33.823  12.330  0.00  0.00    +0.000 OA
ENDROOT
TORSDOF 0
REMARK  Name = ../refined-set-2016/1ajx/1ajx_pocket.pdb
REMARK  205 active torsions:
REMARK  status: ('A' for Active; 'I' for Inactive)
REMARK    1  A    between atoms: _1  and  _3
REMARK    2  A    between atoms: _3  and  _4
REMARK    3  A    between atoms: _3  and  _6
REMARK    4  A    between atoms: _6  and  _7
REMARK    5  A    between atoms: _7  and  _8
REMARK    6  A    between atoms: _8  and  _9
REMARK    7  A    between atoms: _18  and  _20
REMARK    8  A    between atoms: _20  and  _21
REMARK    9  A    between atoms: _20  and  _23
REMARK   10  A    between atoms: _23  and  _24
REMARK   11  A    between atoms: _27  and  _29
REMARK   12  A    between atoms: _29  and  _30
REMARK   13  A    between atoms: _29  and  _32
REMARK   14  A    between atoms: _32  and  _33
REMARK   15  A    between atoms: _36  and  _38
REMARK   16  A    between atoms: _38  and  _39
REMARK   17  A    between atoms: _38  and  _41
REMARK   18  A    between atoms: _41  and  _42
REMARK   19  A    between atoms: _45  and  _47
REMARK   20  A    between atoms: _47  and  _48
REMARK   21  A    between atoms: _47  and  _50
REMARK   22  A    between atoms: _50  and  _51
REMARK   23  A    between atoms: _54  and  _56
REMARK   24  A    between atoms: _56  and  _57
REMARK   25  A    between atoms: _59  and  _61
REMARK   26  A    between atoms: _61  and  _62
REMARK   27  A    between atoms: _65  and  _67
REMARK   28  A    between atoms: _67  and  _68
REMARK   29  A    between atoms: _67  and  _70
REMARK   30  A    between atoms: _70  and  _71
REMARK   31  A    between atoms: _74  and  _76
REMARK   32  A    between atoms: _76  and  _77
REMARK   33  A    between atoms: _76  and  _79
REMARK   34  A    between atoms: _79  and  _80
REMARK   35  A    between atoms: _83  and  _85
REMARK   36  A    between atoms: _85  and  _86
REMARK   37  A    between atoms: _85  and  _88
REMARK   38  A    between atoms: _88  and  _89
REMARK   39  A    between atoms: _92  and  _94
REMARK   40  A    between atoms: _94  and  _95
REMARK   41  A    between atoms: _94  and  _97
REMARK   42  A    between atoms: _100  and  _102
REMARK   43  A    between atoms: _102  and  _103
REMARK   44  A    between atoms: _102  and  _105
REMARK   45  A    between atoms: _105  and  _106
REMARK   46  A    between atoms: _109  and  _111
REMARK   47  A    between atoms: _111  and  _112
REMARK   48  A    between atoms: _114  and  _116
REMARK   49  A    between atoms: _116  and  _117
REMARK   50  A    between atoms: _119  and  _121
REMARK   51  A    between atoms: _121  and  _122
REMARK   52  A    between atoms: _121  and  _124
REMARK   53  A    between atoms: _124  and  _125
REMARK   54  A    between atoms: _128  and  _130
REMARK   55  A    between atoms: _130  and  _131
REMARK   56  A    between atoms: _133  and  _135
REMARK   57  A    between atoms: _135  and  _136
REMARK   58  A    between atoms: _138  and  _140
REMARK   59  A    between atoms: _140  and  _141
REMARK   60  A    between atoms: _140  and  _143
REMARK   61  A    between atoms: _143  and  _144
REMARK   62  A    between atoms: _147  and  _149
REMARK   63  A    between atoms: _149  and  _150
REMARK   64  A    between atoms: _149  and  _152
REMARK   65  A    between atoms: _152  and  _153
REMARK   66  A    between atoms: _156  and  _158
REMARK   67  A    between atoms: _158  and  _159
REMARK   68  A    between atoms: _158  and  _161
REMARK   69  A    between atoms: _161  and  _162
REMARK   70  A    between atoms: _166  and  _167
REMARK   71  A    between atoms: _172  and  _174
REMARK   72  A    between atoms: _174  and  _175
REMARK   73  A    between atoms: _174  and  _177
REMARK   74  A    between atoms: _180  and  _182
REMARK   75  A    between atoms: _182  and  _183
REMARK   76  A    between atoms: _182  and  _185
REMARK   77  A    between atoms: _185  and  _186
REMARK   78  A    between atoms: _191  and  _193
REMARK   79  A    between atoms: _193  and  _194
REMARK   80  A    between atoms: _193  and  _196
REMARK   81  A    between atoms: _196  and  _197
REMARK   82  A    between atoms: _200  and  _202
REMARK   83  A    between atoms: _202  and  _203
REMARK   84  A    between atoms: _202  and  _205
REMARK   85  A    between atoms: _205  and  _206
REMARK   86  A    between atoms: _209  and  _211
REMARK   87  A    between atoms: _211  and  _212
REMARK   88  A    between atoms: _214  and  _216
REMARK   89  A    between atoms: _216  and  _217
REMARK   90  A    between atoms: _216  and  _219
REMARK   91  A    between atoms: _219  and  _220
REMARK   92  A    between atoms: _220  and  _221
REMARK   93  A    between atoms: _221  and  _222
REMARK   94  A    between atoms: _231  and  _233
REMARK   95  A    between atoms: _233  and  _234
REMARK   96  A    between atoms: _233  and  _236
REMARK   97  A    between atoms: _236  and  _237
REMARK   98  A    between atoms: _237  and  _238
REMARK   99  A    between atoms: _238  and  _239
REMARK  100  A    between atoms: _248  and  _250
REMARK  101  A    between atoms: _250  and  _251
REMARK  102  A    between atoms: _250  and  _253
REMARK  103  A    between atoms: _253  and  _254
REMARK  104  A    between atoms: _257  and  _259
REMARK  105  A    between atoms: _259  and  _260
REMARK  106  A    between atoms: _259  and  _262
REMARK  107  A    between atoms: _262  and  _263
REMARK  108  A    between atoms: _266  and  _268
REMARK  109  A    between atoms: _268  and  _269
REMARK  110  A    between atoms: _268  and  _271
REMARK  111  A    between atoms: _271  and  _272
REMARK  112  A    between atoms: _275  and  _277
REMARK  113  A    between atoms: _277  and  _278
REMARK  114  A    between atoms: _277  and  _280
REMARK  115  A    between atoms: _280  and  _281
REMARK  116  A    between atoms: _284  and  _286
REMARK  117  A    between atoms: _286  and  _287
REMARK  118  A    between atoms: _286  and  _289
REMARK  119  A    between atoms: _289  and  _290
REMARK  120  A    between atoms: _293  and  _295
REMARK  121  A    between atoms: _295  and  _296
REMARK  122  A    between atoms: _298  and  _300
REMARK  123  A    between atoms: _300  and  _301
REMARK  124  A    between atoms: _304  and  _306
REMARK  125  A    between atoms: _306  and  _307
REMARK  126  A    between atoms: _306  and  _309
REMARK  127  A    between atoms: _309  and  _310
REMARK  128  A    between atoms: _313  and  _315
REMARK  129  A    between atoms: _315  and  _316
REMARK  130  A    between atoms: _315  and  _318
REMARK  131  A    between atoms: _318  and  _319
REMARK  132  A    between atoms: _322  and  _324
REMARK  133  A    between atoms: _324  and  _325
REMARK  134  A    between atoms: _324  and  _327
REMARK  135  A    between atoms: _327  and  _328
REMARK  136  A    between atoms: _331  and  _333
REMARK  137  A    between atoms: _333  and  _334
REMARK  138  A    between atoms: _333  and  _336
REMARK  139  A    between atoms: _339  and  _341
REMARK  140  A    between atoms: _341  and  _342
REMARK  141  A    between atoms: _341  and  _344
REMARK  142  A    between atoms: _344  and  _345
REMARK  143  A    between atoms: _348  and  _350
REMARK  144  A    between atoms: _350  and  _351
REMARK  145  A    between atoms: _350  and  _353
REMARK  146  A    between atoms: _353  and  _354
REMARK  147  A    between atoms: _354  and  _355
REMARK  148  A    between atoms: _355  and  _356
REMARK  149  A    between atoms: _356  and  _357
REMARK  150  A    between atoms: _361  and  _363
REMARK  151  A    between atoms: _363  and  _364
REMARK  152  A    between atoms: _363  and  _366
REMARK  153  A    between atoms: _366  and  _367
REMARK  154  A    between atoms: _370  and  _372
REMARK  155  A    between atoms: _372  and  _373
REMARK  156  A    between atoms: _375  and  _377
REMARK  157  A    between atoms: _377  and  _378
REMARK  158  A    between atoms: _380  and  _382
REMARK  159  A    between atoms: _382  and  _383
REMARK  160  A    between atoms: _382  and  _385
REMARK  161  A    between atoms: _385  and  _386
REMARK  162  A    between atoms: _389  and  _391
REMARK  163  A    between atoms: _391  and  _392
REMARK  164  A    between atoms: _394  and  _396
REMARK  165  A    between atoms: _396  and  _397
REMARK  166  A    between atoms: _399  and  _401
REMARK  167  A    between atoms: _401  and  _402
REMARK  168  A    between atoms: _401  and  _404
REMARK  169  A    between atoms: _404  and  _405
REMARK  170  A    between atoms: _411  and  _413
REMARK  171  A    between atoms: _413  and  _414
REMARK  172  A    between atoms: _413  and  _416
REMARK  173  A    between atoms: _416  and  _417
REMARK  174  A    between atoms: _420  and  _422
REMARK  175  A    between atoms: _422  and  _423
REMARK  176  A    between atoms: _422  and  _425
REMARK  177  A    between atoms: _425  and  _426
REMARK  178  A    between atoms: _429  and  _431
REMARK  179  A    between atoms: _431  and  _432
REMARK  180  A    between atoms: _431  and  _434
REMARK  181  A    between atoms: _434  and  _435
REMARK  182  A    between atoms: _439  and  _440
REMARK  183  A    between atoms: _445  and  _447
REMARK  184  A    between atoms: _447  and  _448
REMARK  185  A    between atoms: _447  and  _450
REMARK  186  A    between atoms: _453  and  _455
REMARK  187  A    between atoms: _455  and  _456
REMARK  188  A    between atoms: _455  and  _458
REMARK  189  A    between atoms: _458  and  _459
REMARK  190  A    between atoms: _464  and  _466
REMARK  191  A    between atoms: _466  and  _467
REMARK  192  A    between atoms: _466  and  _469
REMARK  193  A    between atoms: _469  and  _470
REMARK  194  A    between atoms: _473  and  _475
REMARK  195  A    between atoms: _475  and  _476
REMARK  196  A    between atoms: _475  and  _478
REMARK  197  A    between atoms: _478  and  _479
REMARK  198  A    between atoms: _482  and  _484
REMARK  199  A    between atoms: _484  and  _485
REMARK  200  A    between atoms: _487  and  _489
REMARK  201  A    between atoms: _489  and  _490
REMARK  202  A    between atoms: _489  and  _492
REMARK  203  A    between atoms: _492  and  _493
REMARK  204  A    between atoms: _493  and  _494
REMARK  205  A    between atoms: _494  and  _495
REMARK                            x       y       z     vdW  Elec       q    Type
REMARK                         _______ _______ _______ _____ _____    ______ ____
ROOT
ATOM      1  O   HOH     1      11.109  31.247   1.428  0.00  0.00    +0.000 OA
ENDROOT
TORSDOF 0
REMARK  Name = ../refined-set-2016/1ajx/1ajx_pocket.pdb
REMARK  205 active torsions:
REMARK  status: ('A' for Active; 'I' for Inactive)
REMARK    1  A    between atoms: _1  and  _3
REMARK    2  A    between atoms: _3  and  _4
REMARK    3  A    between atoms: _3  and  _6
REMARK    4  A    between atoms: _6  and  _7
REMARK    5  A    between atoms: _7  and  _8
REMARK    6  A    between atoms: _8  and  _9
REMARK    7  A    between atoms: _18  and  _20
REMARK    8  A    between atoms: _20  and  _21
REMARK    9  A    between atoms: _20  and  _23
REMARK   10  A    between atoms: _23  and  _24
REMARK   11  A    between atoms: _27  and  _29
REMARK   12  A    between atoms: _29  and  _30
REMARK   13  A    between atoms: _29  and  _32
REMARK   14  A    between atoms: _32  and  _33
REMARK   15  A    between atoms: _36  and  _38
REMARK   16  A    between atoms: _38  and  _39
REMARK   17  A    between atoms: _38  and  _41
REMARK   18  A    between atoms: _41  and  _42
REMARK   19  A    between atoms: _45  and  _47
REMARK   20  A    between atoms: _47  and  _48
REMARK   21  A    between atoms: _47  and  _50
REMARK   22  A    between atoms: _50  and  _51
REMARK   23  A    between atoms: _54  and  _56
REMARK   24  A    between atoms: _56  and  _57
REMARK   25  A    between atoms: _59  and  _61
REMARK   26  A    between atoms: _61  and  _62
REMARK   27  A    between atoms: _65  and  _67
REMARK   28  A    between atoms: _67  and  _68
REMARK   29  A    between atoms: _67  and  _70
REMARK   30  A    between atoms: _70  and  _71
REMARK   31  A    between atoms: _74  and  _76
REMARK   32  A    between atoms: _76  and  _77
REMARK   33  A    between atoms: _76  and  _79
REMARK   34  A    between atoms: _79  and  _80
REMARK   35  A    between atoms: _83  and  _85
REMARK   36  A    between atoms: _85  and  _86
REMARK   37  A    between atoms: _85  and  _88
REMARK   38  A    between atoms: _88  and  _89
REMARK   39  A    between atoms: _92  and  _94
REMARK   40  A    between atoms: _94  and  _95
REMARK   41  A    between atoms: _94  and  _97
REMARK   42  A    between atoms: _100  and  _102
REMARK   43  A    between atoms: _102  and  _103
REMARK   44  A    between atoms: _102  and  _105
REMARK   45  A    between atoms: _105  and  _106
REMARK   46  A    between atoms: _109  and  _111
REMARK   47  A    between atoms: _111  and  _112
REMARK   48  A    between atoms: _114  and  _116
REMARK   49  A    between atoms: _116  and  _117
REMARK   50  A    between atoms: _119  and  _121
REMARK   51  A    between atoms: _121  and  _122
REMARK   52  A    between atoms: _121  and  _124
REMARK   53  A    between atoms: _124  and  _125
REMARK   54  A    between atoms: _128  and  _130
REMARK   55  A    between atoms: _130  and  _131
REMARK   56  A    between atoms: _133  and  _135
REMARK   57  A    between atoms: _135  and  _136
REMARK   58  A    between atoms: _138  and  _140
REMARK   59  A    between atoms: _140  and  _141
REMARK   60  A    between atoms: _140  and  _143
REMARK   61  A    between atoms: _143  and  _144
REMARK   62  A    between atoms: _147  and  _149
REMARK   63  A    between atoms: _149  and  _150
REMARK   64  A    between atoms: _149  and  _152
REMARK   65  A    between atoms: _152  and  _153
REMARK   66  A    between atoms: _156  and  _158
REMARK   67  A    between atoms: _158  and  _159
REMARK   68  A    between atoms: _158  and  _161
REMARK   69  A    between atoms: _161  and  _162
REMARK   70  A    between atoms: _166  and  _167
REMARK   71  A    between atoms: _172  and  _174
REMARK   72  A    between atoms: _174  and  _175
REMARK   73  A    between atoms: _174  and  _177
REMARK   74  A    between atoms: _180  and  _182
REMARK   75  A    between atoms: _182  and  _183
REMARK   76  A    between atoms: _182  and  _185
REMARK   77  A    between atoms: _185  and  _186
REMARK   78  A    between atoms: _191  and  _193
REMARK   79  A    between atoms: _193  and  _194
REMARK   80  A    between atoms: _193  and  _196
REMARK   81  A    between atoms: _196  and  _197
REMARK   82  A    between atoms: _200  and  _202
REMARK   83  A    between atoms: _202  and  _203
REMARK   84  A    between atoms: _202  and  _205
REMARK   85  A    between atoms: _205  and  _206
REMARK   86  A    between atoms: _209  and  _211
REMARK   87  A    between atoms: _211  and  _212
REMARK   88  A    between atoms: _214  and  _216
REMARK   89  A    between atoms: _216  and  _217
REMARK   90  A    between atoms: _216  and  _219
REMARK   91  A    between atoms: _219  and  _220
REMARK   92  A    between atoms: _220  and  _221
REMARK   93  A    between atoms: _221  and  _222
REMARK   94  A    between atoms: _231  and  _233
REMARK   95  A    between atoms: _233  and  _234
REMARK   96  A    between atoms: _233  and  _236
REMARK   97  A    between atoms: _236  and  _237
REMARK   98  A    between atoms: _237  and  _238
REMARK   99  A    between atoms: _238  and  _239
REMARK  100  A    between atoms: _248  and  _250
REMARK  101  A    between atoms: _250  and  _251
REMARK  102  A    between atoms: _250  and  _253
REMARK  103  A    between atoms: _253  and  _254
REMARK  104  A    between atoms: _257  and  _259
REMARK  105  A    between atoms: _259  and  _260
REMARK  106  A    between atoms: _259  and  _262
REMARK  107  A    between atoms: _262  and  _263
REMARK  108  A    between atoms: _266  and  _268
REMARK  109  A    between atoms: _268  and  _269
REMARK  110  A    between atoms: _268  and  _271
REMARK  111  A    between atoms: _271  and  _272
REMARK  112  A    between atoms: _275  and  _277
REMARK  113  A    between atoms: _277  and  _278
REMARK  114  A    between atoms: _277  and  _280
REMARK  115  A    between atoms: _280  and  _281
REMARK  116  A    between atoms: _284  and  _286
REMARK  117  A    between atoms: _286  and  _287
REMARK  118  A    between atoms: _286  and  _289
REMARK  119  A    between atoms: _289  and  _290
REMARK  120  A    between atoms: _293  and  _295
REMARK  121  A    between atoms: _295  and  _296
REMARK  122  A    between atoms: _298  and  _300
REMARK  123  A    between atoms: _300  and  _301
REMARK  124  A    between atoms: _304  and  _306
REMARK  125  A    between atoms: _306  and  _307
REMARK  126  A    between atoms: _306  and  _309
REMARK  127  A    between atoms: _309  and  _310
REMARK  128  A    between atoms: _313  and  _315
REMARK  129  A    between atoms: _315  and  _316
REMARK  130  A    between atoms: _315  and  _318
REMARK  131  A    between atoms: _318  and  _319
REMARK  132  A    between atoms: _322  and  _324
REMARK  133  A    between atoms: _324  and  _325
REMARK  134  A    between atoms: _324  and  _327
REMARK  135  A    between atoms: _327  and  _328
REMARK  136  A    between atoms: _331  and  _333
REMARK  137  A    between atoms: _333  and  _334
REMARK  138  A    between atoms: _333  and  _336
REMARK  139  A    between atoms: _339  and  _341
REMARK  140  A    between atoms: _341  and  _342
REMARK  141  A    between atoms: _341  and  _344
REMARK  142  A    between atoms: _344  and  _345
REMARK  143  A    between atoms: _348  and  _350
REMARK  144  A    between atoms: _350  and  _351
REMARK  145  A    between atoms: _350  and  _353
REMARK  146  A    between atoms: _353  and  _354
REMARK  147  A    between atoms: _354  and  _355
REMARK  148  A    between atoms: _355  and  _356
REMARK  149  A    between atoms: _356  and  _357
REMARK  150  A    between atoms: _361  and  _363
REMARK  151  A    between atoms: _363  and  _364
REMARK  152  A    between atoms: _363  and  _366
REMARK  153  A    between atoms: _366  and  _367
REMARK  154  A    between atoms: _370  and  _372
REMARK  155  A    between atoms: _372  and  _373
REMARK  156  A    between atoms: _375  and  _377
REMARK  157  A    between atoms: _377  and  _378
REMARK  158  A    between atoms: _380  and  _382
REMARK  159  A    between atoms: _382  and  _383
REMARK  160  A    between atoms: _382  and  _385
REMARK  161  A    between atoms: _385  and  _386
REMARK  162  A    between atoms: _389  and  _391
REMARK  163  A    between atoms: _391  and  _392
REMARK  164  A    between atoms: _394  and  _396
REMARK  165  A    between atoms: _396  and  _397
REMARK  166  A    between atoms: _399  and  _401
REMARK  167  A    between atoms: _401  and  _402
REMARK  168  A    between atoms: _401  and  _404
REMARK  169  A    between atoms: _404  and  _405
REMARK  170  A    between atoms: _411  and  _413
REMARK  171  A    between atoms: _413  and  _414
REMARK  172  A    between atoms: _413  and  _416
REMARK  173  A    between atoms: _416  and  _417
REMARK  174  A    between atoms: _420  and  _422
REMARK  175  A    between atoms: _422  and  _423
REMARK  176  A    between atoms: _422  and  _425
REMARK  177  A    between atoms: _425  and  _426
REMARK  178  A    between atoms: _429  and  _431
REMARK  179  A    between atoms: _431  and  _432
REMARK  180  A    between atoms: _431  and  _434
REMARK  181  A    between atoms: _434  and  _435
REMARK  182  A    between atoms: _439  and  _440
REMARK  183  A    between atoms: _445  and  _447
REMARK  184  A    between atoms: _447  and  _448
REMARK  185  A    between atoms: _447  and  _450
REMARK  186  A    between atoms: _453  and  _455
REMARK  187  A    between atoms: _455  and  _456
REMARK  188  A    between atoms: _455  and  _458
REMARK  189  A    between atoms: _458  and  _459
REMARK  190  A    between atoms: _464  and  _466
REMARK  191  A    between atoms: _466  and  _467
REMARK  192  A    between atoms: _466  and  _469
REMARK  193  A    between atoms: _469  and  _470
REMARK  194  A    between atoms: _473  and  _475
REMARK  195  A    between atoms: _475  and  _476
REMARK  196  A    between atoms: _475  and  _478
REMARK  197  A    between atoms: _478  and  _479
REMARK  198  A    between atoms: _482  and  _484
REMARK  199  A    between atoms: _484  and  _485
REMARK  200  A    between atoms: _487  and  _489
REMARK  201  A    between atoms: _489  and  _490
REMARK  202  A    between atoms: _489  and  _492
REMARK  203  A    between atoms: _492  and  _493
REMARK  204  A    between atoms: _493  and  _494
REMARK  205  A    between atoms: _494  and  _495
REMARK                            x       y       z     vdW  Elec       q    Type
REMARK                         _______ _______ _______ _____ _____    ______ ____
ROOT
ATOM      1  O   HOH     1       6.198  27.574   7.663  0.00  0.00    +0.000 OA
ENDROOT
TORSDOF 0
REMARK  Name = ../refined-set-2016/1ajx/1ajx_pocket.pdb
REMARK  205 active torsions:
REMARK  status: ('A' for Active; 'I' for Inactive)
REMARK    1  A    between atoms: _1  and  _3
REMARK    2  A    between atoms: _3  and  _4
REMARK    3  A    between atoms: _3  and  _6
REMARK    4  A    between atoms: _6  and  _7
REMARK    5  A    between atoms: _7  and  _8
REMARK    6  A    between atoms: _8  and  _9
REMARK    7  A    between atoms: _18  and  _20
REMARK    8  A    between atoms: _20  and  _21
REMARK    9  A    between atoms: _20  and  _23
REMARK   10  A    between atoms: _23  and  _24
REMARK   11  A    between atoms: _27  and  _29
REMARK   12  A    between atoms: _29  and  _30
REMARK   13  A    between atoms: _29  and  _32
REMARK   14  A    between atoms: _32  and  _33
REMARK   15  A    between atoms: _36  and  _38
REMARK   16  A    between atoms: _38  and  _39
REMARK   17  A    between atoms: _38  and  _41
REMARK   18  A    between atoms: _41  and  _42
REMARK   19  A    between atoms: _45  and  _47
REMARK   20  A    between atoms: _47  and  _48
REMARK   21  A    between atoms: _47  and  _50
REMARK   22  A    between atoms: _50  and  _51
REMARK   23  A    between atoms: _54  and  _56
REMARK   24  A    between atoms: _56  and  _57
REMARK   25  A    between atoms: _59  and  _61
REMARK   26  A    between atoms: _61  and  _62
REMARK   27  A    between atoms: _65  and  _67
REMARK   28  A    between atoms: _67  and  _68
REMARK   29  A    between atoms: _67  and  _70
REMARK   30  A    between atoms: _70  and  _71
REMARK   31  A    between atoms: _74  and  _76
REMARK   32  A    between atoms: _76  and  _77
REMARK   33  A    between atoms: _76  and  _79
REMARK   34  A    between atoms: _79  and  _80
REMARK   35  A    between atoms: _83  and  _85
REMARK   36  A    between atoms: _85  and  _86
REMARK   37  A    between atoms: _85  and  _88
REMARK   38  A    between atoms: _88  and  _89
REMARK   39  A    between atoms: _92  and  _94
REMARK   40  A    between atoms: _94  and  _95
REMARK   41  A    between atoms: _94  and  _97
REMARK   42  A    between atoms: _100  and  _102
REMARK   43  A    between atoms: _102  and  _103
REMARK   44  A    between atoms: _102  and  _105
REMARK   45  A    between atoms: _105  and  _106
REMARK   46  A    between atoms: _109  and  _111
REMARK   47  A    between atoms: _111  and  _112
REMARK   48  A    between atoms: _114  and  _116
REMARK   49  A    between atoms: _116  and  _117
REMARK   50  A    between atoms: _119  and  _121
REMARK   51  A    between atoms: _121  and  _122
REMARK   52  A    between atoms: _121  and  _124
REMARK   53  A    between atoms: _124  and  _125
REMARK   54  A    between atoms: _128  and  _130
REMARK   55  A    between atoms: _130  and  _131
REMARK   56  A    between atoms: _133  and  _135
REMARK   57  A    between atoms: _135  and  _136
REMARK   58  A    between atoms: _138  and  _140
REMARK   59  A    between atoms: _140  and  _141
REMARK   60  A    between atoms: _140  and  _143
REMARK   61  A    between atoms: _143  and  _144
REMARK   62  A    between atoms: _147  and  _149
REMARK   63  A    between atoms: _149  and  _150
REMARK   64  A    between atoms: _149  and  _152
REMARK   65  A    between atoms: _152  and  _153
REMARK   66  A    between atoms: _156  and  _158
REMARK   67  A    between atoms: _158  and  _159
REMARK   68  A    between atoms: _158  and  _161
REMARK   69  A    between atoms: _161  and  _162
REMARK   70  A    between atoms: _166  and  _167
REMARK   71  A    between atoms: _172  and  _174
REMARK   72  A    between atoms: _174  and  _175
REMARK   73  A    between atoms: _174  and  _177
REMARK   74  A    between atoms: _180  and  _182
REMARK   75  A    between atoms: _182  and  _183
REMARK   76  A    between atoms: _182  and  _185
REMARK   77  A    between atoms: _185  and  _186
REMARK   78  A    between atoms: _191  and  _193
REMARK   79  A    between atoms: _193  and  _194
REMARK   80  A    between atoms: _193  and  _196
REMARK   81  A    between atoms: _196  and  _197
REMARK   82  A    between atoms: _200  and  _202
REMARK   83  A    between atoms: _202  and  _203
REMARK   84  A    between atoms: _202  and  _205
REMARK   85  A    between atoms: _205  and  _206
REMARK   86  A    between atoms: _209  and  _211
REMARK   87  A    between atoms: _211  and  _212
REMARK   88  A    between atoms: _214  and  _216
REMARK   89  A    between atoms: _216  and  _217
REMARK   90  A    between atoms: _216  and  _219
REMARK   91  A    between atoms: _219  and  _220
REMARK   92  A    between atoms: _220  and  _221
REMARK   93  A    between atoms: _221  and  _222
REMARK   94  A    between atoms: _231  and  _233
REMARK   95  A    between atoms: _233  and  _234
REMARK   96  A    between atoms: _233  and  _236
REMARK   97  A    between atoms: _236  and  _237
REMARK   98  A    between atoms: _237  and  _238
REMARK   99  A    between atoms: _238  and  _239
REMARK  100  A    between atoms: _248  and  _250
REMARK  101  A    between atoms: _250  and  _251
REMARK  102  A    between atoms: _250  and  _253
REMARK  103  A    between atoms: _253  and  _254
REMARK  104  A    between atoms: _257  and  _259
REMARK  105  A    between atoms: _259  and  _260
REMARK  106  A    between atoms: _259  and  _262
REMARK  107  A    between atoms: _262  and  _263
REMARK  108  A    between atoms: _266  and  _268
REMARK  109  A    between atoms: _268  and  _269
REMARK  110  A    between atoms: _268  and  _271
REMARK  111  A    between atoms: _271  and  _272
REMARK  112  A    between atoms: _275  and  _277
REMARK  113  A    between atoms: _277  and  _278
REMARK  114  A    between atoms: _277  and  _280
REMARK  115  A    between atoms: _280  and  _281
REMARK  116  A    between atoms: _284  and  _286
REMARK  117  A    between atoms: _286  and  _287
REMARK  118  A    between atoms: _286  and  _289
REMARK  119  A    between atoms: _289  and  _290
REMARK  120  A    between atoms: _293  and  _295
REMARK  121  A    between atoms: _295  and  _296
REMARK  122  A    between atoms: _298  and  _300
REMARK  123  A    between atoms: _300  and  _301
REMARK  124  A    between atoms: _304  and  _306
REMARK  125  A    between atoms: _306  and  _307
REMARK  126  A    between atoms: _306  and  _309
REMARK  127  A    between atoms: _309  and  _310
REMARK  128  A    between atoms: _313  and  _315
REMARK  129  A    between atoms: _315  and  _316
REMARK  130  A    between atoms: _315  and  _318
REMARK  131  A    between atoms: _318  and  _319
REMARK  132  A    between atoms: _322  and  _324
REMARK  133  A    between atoms: _324  and  _325
REMARK  134  A    between atoms: _324  and  _327
REMARK  135  A    between atoms: _327  and  _328
REMARK  136  A    between atoms: _331  and  _333
REMARK  137  A    between atoms: _333  and  _334
REMARK  138  A    between atoms: _333  and  _336
REMARK  139  A    between atoms: _339  and  _341
REMARK  140  A    between atoms: _341  and  _342
REMARK  141  A    between atoms: _341  and  _344
REMARK  142  A    between atoms: _344  and  _345
REMARK  143  A    between atoms: _348  and  _350
REMARK  144  A    between atoms: _350  and  _351
REMARK  145  A    between atoms: _350  and  _353
REMARK  146  A    between atoms: _353  and  _354
REMARK  147  A    between atoms: _354  and  _355
REMARK  148  A    between atoms: _355  and  _356
REMARK  149  A    between atoms: _356  and  _357
REMARK  150  A    between atoms: _361  and  _363
REMARK  151  A    between atoms: _363  and  _364
REMARK  152  A    between atoms: _363  and  _366
REMARK  153  A    between atoms: _366  and  _367
REMARK  154  A    between atoms: _370  and  _372
REMARK  155  A    between atoms: _372  and  _373
REMARK  156  A    between atoms: _375  and  _377
REMARK  157  A    between atoms: _377  and  _378
REMARK  158  A    between atoms: _380  and  _382
REMARK  159  A    between atoms: _382  and  _383
REMARK  160  A    between atoms: _382  and  _385
REMARK  161  A    between atoms: _385  and  _386
REMARK  162  A    between atoms: _389  and  _391
REMARK  163  A    between atoms: _391  and  _392
REMARK  164  A    between atoms: _394  and  _396
REMARK  165  A    between atoms: _396  and  _397
REMARK  166  A    between atoms: _399  and  _401
REMARK  167  A    between atoms: _401  and  _402
REMARK  168  A    between atoms: _401  and  _404
REMARK  169  A    between atoms: _404  and  _405
REMARK  170  A    between atoms: _411  and  _413
REMARK  171  A    between atoms: _413  and  _414
REMARK  172  A    between atoms: _413  and  _416
REMARK  173  A    between atoms: _416  and  _417
REMARK  174  A    between atoms: _420  and  _422
REMARK  175  A    between atoms: _422  and  _423
REMARK  176  A    between atoms: _422  and  _425
REMARK  177  A    between atoms: _425  and  _426
REMARK  178  A    between atoms: _429  and  _431
REMARK  179  A    between atoms: _431  and  _432
REMARK  180  A    between atoms: _431  and  _434
REMARK  181  A    between atoms: _434  and  _435
REMARK  182  A    between atoms: _439  and  _440
REMARK  183  A    between atoms: _445  and  _447
REMARK  184  A    between atoms: _447  and  _448
REMARK  185  A    between atoms: _447  and  _450
REMARK  186  A    between atoms: _453  and  _455
REMARK  187  A    between atoms: _455  and  _456
REMARK  188  A    between atoms: _455  and  _458
REMARK  189  A    between atoms: _458  and  _459
REMARK  190  A    between atoms: _464  and  _466
REMARK  191  A    between atoms: _466  and  _467
REMARK  192  A    between atoms: _466  and  _469
REMARK  193  A    between atoms: _469  and  _470
REMARK  194  A    between atoms: _473  and  _475
REMARK  195  A    between atoms: _475  and  _476
REMARK  196  A    between atoms: _475  and  _478
REMARK  197  A    between atoms: _478  and  _479
REMARK  198  A    between atoms: _482  and  _484
REMARK  199  A    between atoms: _484  and  _485
REMARK  200  A    between atoms: _487  and  _489
REMARK  201  A    between atoms: _489  and  _490
REMARK  202  A    between atoms: _489  and  _492
REMARK  203  A    between atoms: _492  and  _493
REMARK  204  A    between atoms: _493  and  _494
REMARK  205  A    between atoms: _494  and  _495
REMARK                            x       y       z     vdW  Elec       q    Type
REMARK                         _______ _______ _______ _____ _____    ______ ____
ROOT
ATOM      1  O   HOH     1      19.421  20.142   5.494  0.00  0.00    +0.000 OA
ENDROOT
TORSDOF 0
REMARK  Name = ../refined-set-2016/1ajx/1ajx_pocket.pdb
REMARK  205 active torsions:
REMARK  status: ('A' for Active; 'I' for Inactive)
REMARK    1  A    between atoms: _1  and  _3
REMARK    2  A    between atoms: _3  and  _4
REMARK    3  A    between atoms: _3  and  _6
REMARK    4  A    between atoms: _6  and  _7
REMARK    5  A    between atoms: _7  and  _8
REMARK    6  A    between atoms: _8  and  _9
REMARK    7  A    between atoms: _18  and  _20
REMARK    8  A    between atoms: _20  and  _21
REMARK    9  A    between atoms: _20  and  _23
REMARK   10  A    between atoms: _23  and  _24
REMARK   11  A    between atoms: _27  and  _29
REMARK   12  A    between atoms: _29  and  _30
REMARK   13  A    between atoms: _29  and  _32
REMARK   14  A    between atoms: _32  and  _33
REMARK   15  A    between atoms: _36  and  _38
REMARK   16  A    between atoms: _38  and  _39
REMARK   17  A    between atoms: _38  and  _41
REMARK   18  A    between atoms: _41  and  _42
REMARK   19  A    between atoms: _45  and  _47
REMARK   20  A    between atoms: _47  and  _48
REMARK   21  A    between atoms: _47  and  _50
REMARK   22  A    between atoms: _50  and  _51
REMARK   23  A    between atoms: _54  and  _56
REMARK   24  A    between atoms: _56  and  _57
REMARK   25  A    between atoms: _59  and  _61
REMARK   26  A    between atoms: _61  and  _62
REMARK   27  A    between atoms: _65  and  _67
REMARK   28  A    between atoms: _67  and  _68
REMARK   29  A    between atoms: _67  and  _70
REMARK   30  A    between atoms: _70  and  _71
REMARK   31  A    between atoms: _74  and  _76
REMARK   32  A    between atoms: _76  and  _77
REMARK   33  A    between atoms: _76  and  _79
REMARK   34  A    between atoms: _79  and  _80
REMARK   35  A    between atoms: _83  and  _85
REMARK   36  A    between atoms: _85  and  _86
REMARK   37  A    between atoms: _85  and  _88
REMARK   38  A    between atoms: _88  and  _89
REMARK   39  A    between atoms: _92  and  _94
REMARK   40  A    between atoms: _94  and  _95
REMARK   41  A    between atoms: _94  and  _97
REMARK   42  A    between atoms: _100  and  _102
REMARK   43  A    between atoms: _102  and  _103
REMARK   44  A    between atoms: _102  and  _105
REMARK   45  A    between atoms: _105  and  _106
REMARK   46  A    between atoms: _109  and  _111
REMARK   47  A    between atoms: _111  and  _112
REMARK   48  A    between atoms: _114  and  _116
REMARK   49  A    between atoms: _116  and  _117
REMARK   50  A    between atoms: _119  and  _121
REMARK   51  A    between atoms: _121  and  _122
REMARK   52  A    between atoms: _121  and  _124
REMARK   53  A    between atoms: _124  and  _125
REMARK   54  A    between atoms: _128  and  _130
REMARK   55  A    between atoms: _130  and  _131
REMARK   56  A    between atoms: _133  and  _135
REMARK   57  A    between atoms: _135  and  _136
REMARK   58  A    between atoms: _138  and  _140
REMARK   59  A    between atoms: _140  and  _141
REMARK   60  A    between atoms: _140  and  _143
REMARK   61  A    between atoms: _143  and  _144
REMARK   62  A    between atoms: _147  and  _149
REMARK   63  A    between atoms: _149  and  _150
REMARK   64  A    between atoms: _149  and  _152
REMARK   65  A    between atoms: _152  and  _153
REMARK   66  A    between atoms: _156  and  _158
REMARK   67  A    between atoms: _158  and  _159
REMARK   68  A    between atoms: _158  and  _161
REMARK   69  A    between atoms: _161  and  _162
REMARK   70  A    between atoms: _166  and  _167
REMARK   71  A    between atoms: _172  and  _174
REMARK   72  A    between atoms: _174  and  _175
REMARK   73  A    between atoms: _174  and  _177
REMARK   74  A    between atoms: _180  and  _182
REMARK   75  A    between atoms: _182  and  _183
REMARK   76  A    between atoms: _182  and  _185
REMARK   77  A    between atoms: _185  and  _186
REMARK   78  A    between atoms: _191  and  _193
REMARK   79  A    between atoms: _193  and  _194
REMARK   80  A    between atoms: _193  and  _196
REMARK   81  A    between atoms: _196  and  _197
REMARK   82  A    between atoms: _200  and  _202
REMARK   83  A    between atoms: _202  and  _203
REMARK   84  A    between atoms: _202  and  _205
REMARK   85  A    between atoms: _205  and  _206
REMARK   86  A    between atoms: _209  and  _211
REMARK   87  A    between atoms: _211  and  _212
REMARK   88  A    between atoms: _214  and  _216
REMARK   89  A    between atoms: _216  and  _217
REMARK   90  A    between atoms: _216  and  _219
REMARK   91  A    between atoms: _219  and  _220
REMARK   92  A    between atoms: _220  and  _221
REMARK   93  A    between atoms: _221  and  _222
REMARK   94  A    between atoms: _231  and  _233
REMARK   95  A    between atoms: _233  and  _234
REMARK   96  A    between atoms: _233  and  _236
REMARK   97  A    between atoms: _236  and  _237
REMARK   98  A    between atoms: _237  and  _238
REMARK   99  A    between atoms: _238  and  _239
REMARK  100  A    between atoms: _248  and  _250
REMARK  101  A    between atoms: _250  and  _251
REMARK  102  A    between atoms: _250  and  _253
REMARK  103  A    between atoms: _253  and  _254
REMARK  104  A    between atoms: _257  and  _259
REMARK  105  A    between atoms: _259  and  _260
REMARK  106  A    between atoms: _259  and  _262
REMARK  107  A    between atoms: _262  and  _263
REMARK  108  A    between atoms: _266  and  _268
REMARK  109  A    between atoms: _268  and  _269
REMARK  110  A    between atoms: _268  and  _271
REMARK  111  A    between atoms: _271  and  _272
REMARK  112  A    between atoms: _275  and  _277
REMARK  113  A    between atoms: _277  and  _278
REMARK  114  A    between atoms: _277  and  _280
REMARK  115  A    between atoms: _280  and  _281
REMARK  116  A    between atoms: _284  and  _286
REMARK  117  A    between atoms: _286  and  _287
REMARK  118  A    between atoms: _286  and  _289
REMARK  119  A    between atoms: _289  and  _290
REMARK  120  A    between atoms: _293  and  _295
REMARK  121  A    between atoms: _295  and  _296
REMARK  122  A    between atoms: _298  and  _300
REMARK  123  A    between atoms: _300  and  _301
REMARK  124  A    between atoms: _304  and  _306
REMARK  125  A    between atoms: _306  and  _307
REMARK  126  A    between atoms: _306  and  _309
REMARK  127  A    between atoms: _309  and  _310
REMARK  128  A    between atoms: _313  and  _315
REMARK  129  A    between atoms: _315  and  _316
REMARK  130  A    between atoms: _315  and  _318
REMARK  131  A    between atoms: _318  and  _319
REMARK  132  A    between atoms: _322  and  _324
REMARK  133  A    between atoms: _324  and  _325
REMARK  134  A    between atoms: _324  and  _327
REMARK  135  A    between atoms: _327  and  _328
REMARK  136  A    between atoms: _331  and  _333
REMARK  137  A    between atoms: _333  and  _334
REMARK  138  A    between atoms: _333  and  _336
REMARK  139  A    between atoms: _339  and  _341
REMARK  140  A    between atoms: _341  and  _342
REMARK  141  A    between atoms: _341  and  _344
REMARK  142  A    between atoms: _344  and  _345
REMARK  143  A    between atoms: _348  and  _350
REMARK  144  A    between atoms: _350  and  _351
REMARK  145  A    between atoms: _350  and  _353
REMARK  146  A    between atoms: _353  and  _354
REMARK  147  A    between atoms: _354  and  _355
REMARK  148  A    between atoms: _355  and  _356
REMARK  149  A    between atoms: _356  and  _357
REMARK  150  A    between atoms: _361  and  _363
REMARK  151  A    between atoms: _363  and  _364
REMARK  152  A    between atoms: _363  and  _366
REMARK  153  A    between atoms: _366  and  _367
REMARK  154  A    between atoms: _370  and  _372
REMARK  155  A    between atoms: _372  and  _373
REMARK  156  A    between atoms: _375  and  _377
REMARK  157  A    between atoms: _377  and  _378
REMARK  158  A    between atoms: _380  and  _382
REMARK  159  A    between atoms: _382  and  _383
REMARK  160  A    between atoms: _382  and  _385
REMARK  161  A    between atoms: _385  and  _386
REMARK  162  A    between atoms: _389  and  _391
REMARK  163  A    between atoms: _391  and  _392
REMARK  164  A    between atoms: _394  and  _396
REMARK  165  A    between atoms: _396  and  _397
REMARK  166  A    between atoms: _399  and  _401
REMARK  167  A    between atoms: _401  and  _402
REMARK  168  A    between atoms: _401  and  _404
REMARK  169  A    between atoms: _404  and  _405
REMARK  170  A    between atoms: _411  and  _413
REMARK  171  A    between atoms: _413  and  _414
REMARK  172  A    between atoms: _413  and  _416
REMARK  173  A    between atoms: _416  and  _417
REMARK  174  A    between atoms: _420  and  _422
REMARK  175  A    between atoms: _422  and  _423
REMARK  176  A    between atoms: _422  and  _425
REMARK  177  A    between atoms: _425  and  _426
REMARK  178  A    between atoms: _429  and  _431
REMARK  179  A    between atoms: _431  and  _432
REMARK  180  A    between atoms: _431  and  _434
REMARK  181  A    between atoms: _434  and  _435
REMARK  182  A    between atoms: _439  and  _440
REMARK  183  A    between atoms: _445  and  _447
REMARK  184  A    between atoms: _447  and  _448
REMARK  185  A    between atoms: _447  and  _450
REMARK  186  A    between atoms: _453  and  _455
REMARK  187  A    between atoms: _455  and  _456
REMARK  188  A    between atoms: _455  and  _458
REMARK  189  A    between atoms: _458  and  _459
REMARK  190  A    between atoms: _464  and  _466
REMARK  191  A    between atoms: _466  and  _467
REMARK  192  A    between atoms: _466  and  _469
REMARK  193  A    between atoms: _469  and  _470
REMARK  194  A    between atoms: _473  and  _475
REMARK  195  A    between atoms: _475  and  _476
REMARK  196  A    between atoms: _475  and  _478
REMARK  197  A    between atoms: _478  and  _479
REMARK  198  A    between atoms: _482  and  _484
REMARK  199  A    between atoms: _484  and  _485
REMARK  200  A    between atoms: _487  and  _489
REMARK  201  A    between atoms: _489  and  _490
REMARK  202  A    between atoms: _489  and  _492
REMARK  203  A    between atoms: _492  and  _493
REMARK  204  A    between atoms: _493  and  _494
REMARK  205  A    between atoms: _494  and  _495
REMARK                            x       y       z     vdW  Elec       q    Type
REMARK                         _______ _______ _______ _____ _____    ______ ____
ROOT
ATOM      1  O   HOH     1      20.447  16.323  -3.478  0.00  0.00    +0.000 OA
ENDROOT
TORSDOF 0
REMARK  Name = ../refined-set-2016/1ajx/1ajx_pocket.pdb
REMARK  205 active torsions:
REMARK  status: ('A' for Active; 'I' for Inactive)
REMARK    1  A    between atoms: _1  and  _3
REMARK    2  A    between atoms: _3  and  _4
REMARK    3  A    between atoms: _3  and  _6
REMARK    4  A    between atoms: _6  and  _7
REMARK    5  A    between atoms: _7  and  _8
REMARK    6  A    between atoms: _8  and  _9
REMARK    7  A    between atoms: _18  and  _20
REMARK    8  A    between atoms: _20  and  _21
REMARK    9  A    between atoms: _20  and  _23
REMARK   10  A    between atoms: _23  and  _24
REMARK   11  A    between atoms: _27  and  _29
REMARK   12  A    between atoms: _29  and  _30
REMARK   13  A    between atoms: _29  and  _32
REMARK   14  A    between atoms: _32  and  _33
REMARK   15  A    between atoms: _36  and  _38
REMARK   16  A    between atoms: _38  and  _39
REMARK   17  A    between atoms: _38  and  _41
REMARK   18  A    between atoms: _41  and  _42
REMARK   19  A    between atoms: _45  and  _47
REMARK   20  A    between atoms: _47  and  _48
REMARK   21  A    between atoms: _47  and  _50
REMARK   22  A    between atoms: _50  and  _51
REMARK   23  A    between atoms: _54  and  _56
REMARK   24  A    between atoms: _56  and  _57
REMARK   25  A    between atoms: _59  and  _61
REMARK   26  A    between atoms: _61  and  _62
REMARK   27  A    between atoms: _65  and  _67
REMARK   28  A    between atoms: _67  and  _68
REMARK   29  A    between atoms: _67  and  _70
REMARK   30  A    between atoms: _70  and  _71
REMARK   31  A    between atoms: _74  and  _76
REMARK   32  A    between atoms: _76  and  _77
REMARK   33  A    between atoms: _76  and  _79
REMARK   34  A    between atoms: _79  and  _80
REMARK   35  A    between atoms: _83  and  _85
REMARK   36  A    between atoms: _85  and  _86
REMARK   37  A    between atoms: _85  and  _88
REMARK   38  A    between atoms: _88  and  _89
REMARK   39  A    between atoms: _92  and  _94
REMARK   40  A    between atoms: _94  and  _95
REMARK   41  A    between atoms: _94  and  _97
REMARK   42  A    between atoms: _100  and  _102
REMARK   43  A    between atoms: _102  and  _103
REMARK   44  A    between atoms: _102  and  _105
REMARK   45  A    between atoms: _105  and  _106
REMARK   46  A    between atoms: _109  and  _111
REMARK   47  A    between atoms: _111  and  _112
REMARK   48  A    between atoms: _114  and  _116
REMARK   49  A    between atoms: _116  and  _117
REMARK   50  A    between atoms: _119  and  _121
REMARK   51  A    between atoms: _121  and  _122
REMARK   52  A    between atoms: _121  and  _124
REMARK   53  A    between atoms: _124  and  _125
REMARK   54  A    between atoms: _128  and  _130
REMARK   55  A    between atoms: _130  and  _131
REMARK   56  A    between atoms: _133  and  _135
REMARK   57  A    between atoms: _135  and  _136
REMARK   58  A    between atoms: _138  and  _140
REMARK   59  A    between atoms: _140  and  _141
REMARK   60  A    between atoms: _140  and  _143
REMARK   61  A    between atoms: _143  and  _144
REMARK   62  A    between atoms: _147  and  _149
REMARK   63  A    between atoms: _149  and  _150
REMARK   64  A    between atoms: _149  and  _152
REMARK   65  A    between atoms: _152  and  _153
REMARK   66  A    between atoms: _156  and  _158
REMARK   67  A    between atoms: _158  and  _159
REMARK   68  A    between atoms: _158  and  _161
REMARK   69  A    between atoms: _161  and  _162
REMARK   70  A    between atoms: _166  and  _167
REMARK   71  A    between atoms: _172  and  _174
REMARK   72  A    between atoms: _174  and  _175
REMARK   73  A    between atoms: _174  and  _177
REMARK   74  A    between atoms: _180  and  _182
REMARK   75  A    between atoms: _182  and  _183
REMARK   76  A    between atoms: _182  and  _185
REMARK   77  A    between atoms: _185  and  _186
REMARK   78  A    between atoms: _191  and  _193
REMARK   79  A    between atoms: _193  and  _194
REMARK   80  A    between atoms: _193  and  _196
REMARK   81  A    between atoms: _196  and  _197
REMARK   82  A    between atoms: _200  and  _202
REMARK   83  A    between atoms: _202  and  _203
REMARK   84  A    between atoms: _202  and  _205
REMARK   85  A    between atoms: _205  and  _206
REMARK   86  A    between atoms: _209  and  _211
REMARK   87  A    between atoms: _211  and  _212
REMARK   88  A    between atoms: _214  and  _216
REMARK   89  A    between atoms: _216  and  _217
REMARK   90  A    between atoms: _216  and  _219
REMARK   91  A    between atoms: _219  and  _220
REMARK   92  A    between atoms: _220  and  _221
REMARK   93  A    between atoms: _221  and  _222
REMARK   94  A    between atoms: _231  and  _233
REMARK   95  A    between atoms: _233  and  _234
REMARK   96  A    between atoms: _233  and  _236
REMARK   97  A    between atoms: _236  and  _237
REMARK   98  A    between atoms: _237  and  _238
REMARK   99  A    between atoms: _238  and  _239
REMARK  100  A    between atoms: _248  and  _250
REMARK  101  A    between atoms: _250  and  _251
REMARK  102  A    between atoms: _250  and  _253
REMARK  103  A    between atoms: _253  and  _254
REMARK  104  A    between atoms: _257  and  _259
REMARK  105  A    between atoms: _259  and  _260
REMARK  106  A    between atoms: _259  and  _262
REMARK  107  A    between atoms: _262  and  _263
REMARK  108  A    between atoms: _266  and  _268
REMARK  109  A    between atoms: _268  and  _269
REMARK  110  A    between atoms: _268  and  _271
REMARK  111  A    between atoms: _271  and  _272
REMARK  112  A    between atoms: _275  and  _277
REMARK  113  A    between atoms: _277  and  _278
REMARK  114  A    between atoms: _277  and  _280
REMARK  115  A    between atoms: _280  and  _281
REMARK  116  A    between atoms: _284  and  _286
REMARK  117  A    between atoms: _286  and  _287
REMARK  118  A    between atoms: _286  and  _289
REMARK  119  A    between atoms: _289  and  _290
REMARK  120  A    between atoms: _293  and  _295
REMARK  121  A    between atoms: _295  and  _296
REMARK  122  A    between atoms: _298  and  _300
REMARK  123  A    between atoms: _300  and  _301
REMARK  124  A    between atoms: _304  and  _306
REMARK  125  A    between atoms: _306  and  _307
REMARK  126  A    between atoms: _306  and  _309
REMARK  127  A    between atoms: _309  and  _310
REMARK  128  A    between atoms: _313  and  _315
REMARK  129  A    between atoms: _315  and  _316
REMARK  130  A    between atoms: _315  and  _318
REMARK  131  A    between atoms: _318  and  _319
REMARK  132  A    between atoms: _322  and  _324
REMARK  133  A    between atoms: _324  and  _325
REMARK  134  A    between atoms: _324  and  _327
REMARK  135  A    between atoms: _327  and  _328
REMARK  136  A    between atoms: _331  and  _333
REMARK  137  A    between atoms: _333  and  _334
REMARK  138  A    between atoms: _333  and  _336
REMARK  139  A    between atoms: _339  and  _341
REMARK  140  A    between atoms: _341  and  _342
REMARK  141  A    between atoms: _341  and  _344
REMARK  142  A    between atoms: _344  and  _345
REMARK  143  A    between atoms: _348  and  _350
REMARK  144  A    between atoms: _350  and  _351
REMARK  145  A    between atoms: _350  and  _353
REMARK  146  A    between atoms: _353  and  _354
REMARK  147  A    between atoms: _354  and  _355
REMARK  148  A    between atoms: _355  and  _356
REMARK  149  A    between atoms: _356  and  _357
REMARK  150  A    between atoms: _361  and  _363
REMARK  151  A    between atoms: _363  and  _364
REMARK  152  A    between atoms: _363  and  _366
REMARK  153  A    between atoms: _366  and  _367
REMARK  154  A    between atoms: _370  and  _372
REMARK  155  A    between atoms: _372  and  _373
REMARK  156  A    between atoms: _375  and  _377
REMARK  157  A    between atoms: _377  and  _378
REMARK  158  A    between atoms: _380  and  _382
REMARK  159  A    between atoms: _382  and  _383
REMARK  160  A    between atoms: _382  and  _385
REMARK  161  A    between atoms: _385  and  _386
REMARK  162  A    between atoms: _389  and  _391
REMARK  163  A    between atoms: _391  and  _392
REMARK  164  A    between atoms: _394  and  _396
REMARK  165  A    between atoms: _396  and  _397
REMARK  166  A    between atoms: _399  and  _401
REMARK  167  A    between atoms: _401  and  _402
REMARK  168  A    between atoms: _401  and  _404
REMARK  169  A    between atoms: _404  and  _405
REMARK  170  A    between atoms: _411  and  _413
REMARK  171  A    between atoms: _413  and  _414
REMARK  172  A    between atoms: _413  and  _416
REMARK  173  A    between atoms: _416  and  _417
REMARK  174  A    between atoms: _420  and  _422
REMARK  175  A    between atoms: _422  and  _423
REMARK  176  A    between atoms: _422  and  _425
REMARK  177  A    between atoms: _425  and  _426
REMARK  178  A    between atoms: _429  and  _431
REMARK  179  A    between atoms: _431  and  _432
REMARK  180  A    between atoms: _431  and  _434
REMARK  181  A    between atoms: _434  and  _435
REMARK  182  A    between atoms: _439  and  _440
REMARK  183  A    between atoms: _445  and  _447
REMARK  184  A    between atoms: _447  and  _448
REMARK  185  A    between atoms: _447  and  _450
REMARK  186  A    between atoms: _453  and  _455
REMARK  187  A    between atoms: _455  and  _456
REMARK  188  A    between atoms: _455  and  _458
REMARK  189  A    between atoms: _458  and  _459
REMARK  190  A    between atoms: _464  and  _466
REMARK  191  A    between atoms: _466  and  _467
REMARK  192  A    between atoms: _466  and  _469
REMARK  193  A    between atoms: _469  and  _470
REMARK  194  A    between atoms: _473  and  _475
REMARK  195  A    between atoms: _475  and  _476
REMARK  196  A    between atoms: _475  and  _478
REMARK  197  A    between atoms: _478  and  _479
REMARK  198  A    between atoms: _482  and  _484
REMARK  199  A    between atoms: _484  and  _485
REMARK  200  A    between atoms: _487  and  _489
REMARK  201  A    between atoms: _489  and  _490
REMARK  202  A    between atoms: _489  and  _492
REMARK  203  A    between atoms: _492  and  _493
REMARK  204  A    between atoms: _493  and  _494
REMARK  205  A    between atoms: _494  and  _495
REMARK                            x       y       z     vdW  Elec       q    Type
REMARK                         _______ _______ _______ _____ _____    ______ ____
ROOT
ATOM      1  O   HOH     1      22.164  24.014   4.918  0.00  0.00    +0.000 OA
ENDROOT
TORSDOF 0
REMARK  Name = ../refined-set-2016/1ajx/1ajx_pocket.pdb
REMARK  205 active torsions:
REMARK  status: ('A' for Active; 'I' for Inactive)
REMARK    1  A    between atoms: _1  and  _3
REMARK    2  A    between atoms: _3  and  _4
REMARK    3  A    between atoms: _3  and  _6
REMARK    4  A    between atoms: _6  and  _7
REMARK    5  A    between atoms: _7  and  _8
REMARK    6  A    between atoms: _8  and  _9
REMARK    7  A    between atoms: _18  and  _20
REMARK    8  A    between atoms: _20  and  _21
REMARK    9  A    between atoms: _20  and  _23
REMARK   10  A    between atoms: _23  and  _24
REMARK   11  A    between atoms: _27  and  _29
REMARK   12  A    between atoms: _29  and  _30
REMARK   13  A    between atoms: _29  and  _32
REMARK   14  A    between atoms: _32  and  _33
REMARK   15  A    between atoms: _36  and  _38
REMARK   16  A    between atoms: _38  and  _39
REMARK   17  A    between atoms: _38  and  _41
REMARK   18  A    between atoms: _41  and  _42
REMARK   19  A    between atoms: _45  and  _47
REMARK   20  A    between atoms: _47  and  _48
REMARK   21  A    between atoms: _47  and  _50
REMARK   22  A    between atoms: _50  and  _51
REMARK   23  A    between atoms: _54  and  _56
REMARK   24  A    between atoms: _56  and  _57
REMARK   25  A    between atoms: _59  and  _61
REMARK   26  A    between atoms: _61  and  _62
REMARK   27  A    between atoms: _65  and  _67
REMARK   28  A    between atoms: _67  and  _68
REMARK   29  A    between atoms: _67  and  _70
REMARK   30  A    between atoms: _70  and  _71
REMARK   31  A    between atoms: _74  and  _76
REMARK   32  A    between atoms: _76  and  _77
REMARK   33  A    between atoms: _76  and  _79
REMARK   34  A    between atoms: _79  and  _80
REMARK   35  A    between atoms: _83  and  _85
REMARK   36  A    between atoms: _85  and  _86
REMARK   37  A    between atoms: _85  and  _88
REMARK   38  A    between atoms: _88  and  _89
REMARK   39  A    between atoms: _92  and  _94
REMARK   40  A    between atoms: _94  and  _95
REMARK   41  A    between atoms: _94  and  _97
REMARK   42  A    between atoms: _100  and  _102
REMARK   43  A    between atoms: _102  and  _103
REMARK   44  A    between atoms: _102  and  _105
REMARK   45  A    between atoms: _105  and  _106
REMARK   46  A    between atoms: _109  and  _111
REMARK   47  A    between atoms: _111  and  _112
REMARK   48  A    between atoms: _114  and  _116
REMARK   49  A    between atoms: _116  and  _117
REMARK   50  A    between atoms: _119  and  _121
REMARK   51  A    between atoms: _121  and  _122
REMARK   52  A    between atoms: _121  and  _124
REMARK   53  A    between atoms: _124  and  _125
REMARK   54  A    between atoms: _128  and  _130
REMARK   55  A    between atoms: _130  and  _131
REMARK   56  A    between atoms: _133  and  _135
REMARK   57  A    between atoms: _135  and  _136
REMARK   58  A    between atoms: _138  and  _140
REMARK   59  A    between atoms: _140  and  _141
REMARK   60  A    between atoms: _140  and  _143
REMARK   61  A    between atoms: _143  and  _144
REMARK   62  A    between atoms: _147  and  _149
REMARK   63  A    between atoms: _149  and  _150
REMARK   64  A    between atoms: _149  and  _152
REMARK   65  A    between atoms: _152  and  _153
REMARK   66  A    between atoms: _156  and  _158
REMARK   67  A    between atoms: _158  and  _159
REMARK   68  A    between atoms: _158  and  _161
REMARK   69  A    between atoms: _161  and  _162
REMARK   70  A    between atoms: _166  and  _167
REMARK   71  A    between atoms: _172  and  _174
REMARK   72  A    between atoms: _174  and  _175
REMARK   73  A    between atoms: _174  and  _177
REMARK   74  A    between atoms: _180  and  _182
REMARK   75  A    between atoms: _182  and  _183
REMARK   76  A    between atoms: _182  and  _185
REMARK   77  A    between atoms: _185  and  _186
REMARK   78  A    between atoms: _191  and  _193
REMARK   79  A    between atoms: _193  and  _194
REMARK   80  A    between atoms: _193  and  _196
REMARK   81  A    between atoms: _196  and  _197
REMARK   82  A    between atoms: _200  and  _202
REMARK   83  A    between atoms: _202  and  _203
REMARK   84  A    between atoms: _202  and  _205
REMARK   85  A    between atoms: _205  and  _206
REMARK   86  A    between atoms: _209  and  _211
REMARK   87  A    between atoms: _211  and  _212
REMARK   88  A    between atoms: _214  and  _216
REMARK   89  A    between atoms: _216  and  _217
REMARK   90  A    between atoms: _216  and  _219
REMARK   91  A    between atoms: _219  and  _220
REMARK   92  A    between atoms: _220  and  _221
REMARK   93  A    between atoms: _221  and  _222
REMARK   94  A    between atoms: _231  and  _233
REMARK   95  A    between atoms: _233  and  _234
REMARK   96  A    between atoms: _233  and  _236
REMARK   97  A    between atoms: _236  and  _237
REMARK   98  A    between atoms: _237  and  _238
REMARK   99  A    between atoms: _238  and  _239
REMARK  100  A    between atoms: _248  and  _250
REMARK  101  A    between atoms: _250  and  _251
REMARK  102  A    between atoms: _250  and  _253
REMARK  103  A    between atoms: _253  and  _254
REMARK  104  A    between atoms: _257  and  _259
REMARK  105  A    between atoms: _259  and  _260
REMARK  106  A    between atoms: _259  and  _262
REMARK  107  A    between atoms: _262  and  _263
REMARK  108  A    between atoms: _266  and  _268
REMARK  109  A    between atoms: _268  and  _269
REMARK  110  A    between atoms: _268  and  _271
REMARK  111  A    between atoms: _271  and  _272
REMARK  112  A    between atoms: _275  and  _277
REMARK  113  A    between atoms: _277  and  _278
REMARK  114  A    between atoms: _277  and  _280
REMARK  115  A    between atoms: _280  and  _281
REMARK  116  A    between atoms: _284  and  _286
REMARK  117  A    between atoms: _286  and  _287
REMARK  118  A    between atoms: _286  and  _289
REMARK  119  A    between atoms: _289  and  _290
REMARK  120  A    between atoms: _293  and  _295
REMARK  121  A    between atoms: _295  and  _296
REMARK  122  A    between atoms: _298  and  _300
REMARK  123  A    between atoms: _300  and  _301
REMARK  124  A    between atoms: _304  and  _306
REMARK  125  A    between atoms: _306  and  _307
REMARK  126  A    between atoms: _306  and  _309
REMARK  127  A    between atoms: _309  and  _310
REMARK  128  A    between atoms: _313  and  _315
REMARK  129  A    between atoms: _315  and  _316
REMARK  130  A    between atoms: _315  and  _318
REMARK  131  A    between atoms: _318  and  _319
REMARK  132  A    between atoms: _322  and  _324
REMARK  133  A    between atoms: _324  and  _325
REMARK  134  A    between atoms: _324  and  _327
REMARK  135  A    between atoms: _327  and  _328
REMARK  136  A    between atoms: _331  and  _333
REMARK  137  A    between atoms: _333  and  _334
REMARK  138  A    between atoms: _333  and  _336
REMARK  139  A    between atoms: _339  and  _341
REMARK  140  A    between atoms: _341  and  _342
REMARK  141  A    between atoms: _341  and  _344
REMARK  142  A    between atoms: _344  and  _345
REMARK  143  A    between atoms: _348  and  _350
REMARK  144  A    between atoms: _350  and  _351
REMARK  145  A    between atoms: _350  and  _353
REMARK  146  A    between atoms: _353  and  _354
REMARK  147  A    between atoms: _354  and  _355
REMARK  148  A    between atoms: _355  and  _356
REMARK  149  A    between atoms: _356  and  _357
REMARK  150  A    between atoms: _361  and  _363
REMARK  151  A    between atoms: _363  and  _364
REMARK  152  A    between atoms: _363  and  _366
REMARK  153  A    between atoms: _366  and  _367
REMARK  154  A    between atoms: _370  and  _372
REMARK  155  A    between atoms: _372  and  _373
REMARK  156  A    between atoms: _375  and  _377
REMARK  157  A    between atoms: _377  and  _378
REMARK  158  A    between atoms: _380  and  _382
REMARK  159  A    between atoms: _382  and  _383
REMARK  160  A    between atoms: _382  and  _385
REMARK  161  A    between atoms: _385  and  _386
REMARK  162  A    between atoms: _389  and  _391
REMARK  163  A    between atoms: _391  and  _392
REMARK  164  A    between atoms: _394  and  _396
REMARK  165  A    between atoms: _396  and  _397
REMARK  166  A    between atoms: _399  and  _401
REMARK  167  A    between atoms: _401  and  _402
REMARK  168  A    between atoms: _401  and  _404
REMARK  169  A    between atoms: _404  and  _405
REMARK  170  A    between atoms: _411  and  _413
REMARK  171  A    between atoms: _413  and  _414
REMARK  172  A    between atoms: _413  and  _416
REMARK  173  A    between atoms: _416  and  _417
REMARK  174  A    between atoms: _420  and  _422
REMARK  175  A    between atoms: _422  and  _423
REMARK  176  A    between atoms: _422  and  _425
REMARK  177  A    between atoms: _425  and  _426
REMARK  178  A    between atoms: _429  and  _431
REMARK  179  A    between atoms: _431  and  _432
REMARK  180  A    between atoms: _431  and  _434
REMARK  181  A    between atoms: _434  and  _435
REMARK  182  A    between atoms: _439  and  _440
REMARK  183  A    between atoms: _445  and  _447
REMARK  184  A    between atoms: _447  and  _448
REMARK  185  A    between atoms: _447  and  _450
REMARK  186  A    between atoms: _453  and  _455
REMARK  187  A    between atoms: _455  and  _456
REMARK  188  A    between atoms: _455  and  _458
REMARK  189  A    between atoms: _458  and  _459
REMARK  190  A    between atoms: _464  and  _466
REMARK  191  A    between atoms: _466  and  _467
REMARK  192  A    between atoms: _466  and  _469
REMARK  193  A    between atoms: _469  and  _470
REMARK  194  A    between atoms: _473  and  _475
REMARK  195  A    between atoms: _475  and  _476
REMARK  196  A    between atoms: _475  and  _478
REMARK  197  A    between atoms: _478  and  _479
REMARK  198  A    between atoms: _482  and  _484
REMARK  199  A    between atoms: _484  and  _485
REMARK  200  A    between atoms: _487  and  _489
REMARK  201  A    between atoms: _489  and  _490
REMARK  202  A    between atoms: _489  and  _492
REMARK  203  A    between atoms: _492  and  _493
REMARK  204  A    between atoms: _493  and  _494
REMARK  205  A    between atoms: _494  and  _495
REMARK                            x       y       z     vdW  Elec       q    Type
REMARK                         _______ _______ _______ _____ _____    ______ ____
ROOT
ATOM      1  O   HOH     1       6.595  15.894   3.477  0.00  0.00    +0.000 OA
ENDROOT
TORSDOF 0
REMARK  Name = ../refined-set-2016/1ajx/1ajx_pocket.pdb
REMARK  205 active torsions:
REMARK  status: ('A' for Active; 'I' for Inactive)
REMARK    1  A    between atoms: _1  and  _3
REMARK    2  A    between atoms: _3  and  _4
REMARK    3  A    between atoms: _3  and  _6
REMARK    4  A    between atoms: _6  and  _7
REMARK    5  A    between atoms: _7  and  _8
REMARK    6  A    between atoms: _8  and  _9
REMARK    7  A    between atoms: _18  and  _20
REMARK    8  A    between atoms: _20  and  _21
REMARK    9  A    between atoms: _20  and  _23
REMARK   10  A    between atoms: _23  and  _24
REMARK   11  A    between atoms: _27  and  _29
REMARK   12  A    between atoms: _29  and  _30
REMARK   13  A    between atoms: _29  and  _32
REMARK   14  A    between atoms: _32  and  _33
REMARK   15  A    between atoms: _36  and  _38
REMARK   16  A    between atoms: _38  and  _39
REMARK   17  A    between atoms: _38  and  _41
REMARK   18  A    between atoms: _41  and  _42
REMARK   19  A    between atoms: _45  and  _47
REMARK   20  A    between atoms: _47  and  _48
REMARK   21  A    between atoms: _47  and  _50
REMARK   22  A    between atoms: _50  and  _51
REMARK   23  A    between atoms: _54  and  _56
REMARK   24  A    between atoms: _56  and  _57
REMARK   25  A    between atoms: _59  and  _61
REMARK   26  A    between atoms: _61  and  _62
REMARK   27  A    between atoms: _65  and  _67
REMARK   28  A    between atoms: _67  and  _68
REMARK   29  A    between atoms: _67  and  _70
REMARK   30  A    between atoms: _70  and  _71
REMARK   31  A    between atoms: _74  and  _76
REMARK   32  A    between atoms: _76  and  _77
REMARK   33  A    between atoms: _76  and  _79
REMARK   34  A    between atoms: _79  and  _80
REMARK   35  A    between atoms: _83  and  _85
REMARK   36  A    between atoms: _85  and  _86
REMARK   37  A    between atoms: _85  and  _88
REMARK   38  A    between atoms: _88  and  _89
REMARK   39  A    between atoms: _92  and  _94
REMARK   40  A    between atoms: _94  and  _95
REMARK   41  A    between atoms: _94  and  _97
REMARK   42  A    between atoms: _100  and  _102
REMARK   43  A    between atoms: _102  and  _103
REMARK   44  A    between atoms: _102  and  _105
REMARK   45  A    between atoms: _105  and  _106
REMARK   46  A    between atoms: _109  and  _111
REMARK   47  A    between atoms: _111  and  _112
REMARK   48  A    between atoms: _114  and  _116
REMARK   49  A    between atoms: _116  and  _117
REMARK   50  A    between atoms: _119  and  _121
REMARK   51  A    between atoms: _121  and  _122
REMARK   52  A    between atoms: _121  and  _124
REMARK   53  A    between atoms: _124  and  _125
REMARK   54  A    between atoms: _128  and  _130
REMARK   55  A    between atoms: _130  and  _131
REMARK   56  A    between atoms: _133  and  _135
REMARK   57  A    between atoms: _135  and  _136
REMARK   58  A    between atoms: _138  and  _140
REMARK   59  A    between atoms: _140  and  _141
REMARK   60  A    between atoms: _140  and  _143
REMARK   61  A    between atoms: _143  and  _144
REMARK   62  A    between atoms: _147  and  _149
REMARK   63  A    between atoms: _149  and  _150
REMARK   64  A    between atoms: _149  and  _152
REMARK   65  A    between atoms: _152  and  _153
REMARK   66  A    between atoms: _156  and  _158
REMARK   67  A    between atoms: _158  and  _159
REMARK   68  A    between atoms: _158  and  _161
REMARK   69  A    between atoms: _161  and  _162
REMARK   70  A    between atoms: _166  and  _167
REMARK   71  A    between atoms: _172  and  _174
REMARK   72  A    between atoms: _174  and  _175
REMARK   73  A    between atoms: _174  and  _177
REMARK   74  A    between atoms: _180  and  _182
REMARK   75  A    between atoms: _182  and  _183
REMARK   76  A    between atoms: _182  and  _185
REMARK   77  A    between atoms: _185  and  _186
REMARK   78  A    between atoms: _191  and  _193
REMARK   79  A    between atoms: _193  and  _194
REMARK   80  A    between atoms: _193  and  _196
REMARK   81  A    between atoms: _196  and  _197
REMARK   82  A    between atoms: _200  and  _202
REMARK   83  A    between atoms: _202  and  _203
REMARK   84  A    between atoms: _202  and  _205
REMARK   85  A    between atoms: _205  and  _206
REMARK   86  A    between atoms: _209  and  _211
REMARK   87  A    between atoms: _211  and  _212
REMARK   88  A    between atoms: _214  and  _216
REMARK   89  A    between atoms: _216  and  _217
REMARK   90  A    between atoms: _216  and  _219
REMARK   91  A    between atoms: _219  and  _220
REMARK   92  A    between atoms: _220  and  _221
REMARK   93  A    between atoms: _221  and  _222
REMARK   94  A    between atoms: _231  and  _233
REMARK   95  A    between atoms: _233  and  _234
REMARK   96  A    between atoms: _233  and  _236
REMARK   97  A    between atoms: _236  and  _237
REMARK   98  A    between atoms: _237  and  _238
REMARK   99  A    between atoms: _238  and  _239
REMARK  100  A    between atoms: _248  and  _250
REMARK  101  A    between atoms: _250  and  _251
REMARK  102  A    between atoms: _250  and  _253
REMARK  103  A    between atoms: _253  and  _254
REMARK  104  A    between atoms: _257  and  _259
REMARK  105  A    between atoms: _259  and  _260
REMARK  106  A    between atoms: _259  and  _262
REMARK  107  A    between atoms: _262  and  _263
REMARK  108  A    between atoms: _266  and  _268
REMARK  109  A    between atoms: _268  and  _269
REMARK  110  A    between atoms: _268  and  _271
REMARK  111  A    between atoms: _271  and  _272
REMARK  112  A    between atoms: _275  and  _277
REMARK  113  A    between atoms: _277  and  _278
REMARK  114  A    between atoms: _277  and  _280
REMARK  115  A    between atoms: _280  and  _281
REMARK  116  A    between atoms: _284  and  _286
REMARK  117  A    between atoms: _286  and  _287
REMARK  118  A    between atoms: _286  and  _289
REMARK  119  A    between atoms: _289  and  _290
REMARK  120  A    between atoms: _293  and  _295
REMARK  121  A    between atoms: _295  and  _296
REMARK  122  A    between atoms: _298  and  _300
REMARK  123  A    between atoms: _300  and  _301
REMARK  124  A    between atoms: _304  and  _306
REMARK  125  A    between atoms: _306  and  _307
REMARK  126  A    between atoms: _306  and  _309
REMARK  127  A    between atoms: _309  and  _310
REMARK  128  A    between atoms: _313  and  _315
REMARK  129  A    between atoms: _315  and  _316
REMARK  130  A    between atoms: _315  and  _318
REMARK  131  A    between atoms: _318  and  _319
REMARK  132  A    between atoms: _322  and  _324
REMARK  133  A    between atoms: _324  and  _325
REMARK  134  A    between atoms: _324  and  _327
REMARK  135  A    between atoms: _327  and  _328
REMARK  136  A    between atoms: _331  and  _333
REMARK  137  A    between atoms: _333  and  _334
REMARK  138  A    between atoms: _333  and  _336
REMARK  139  A    between atoms: _339  and  _341
REMARK  140  A    between atoms: _341  and  _342
REMARK  141  A    between atoms: _341  and  _344
REMARK  142  A    between atoms: _344  and  _345
REMARK  143  A    between atoms: _348  and  _350
REMARK  144  A    between atoms: _350  and  _351
REMARK  145  A    between atoms: _350  and  _353
REMARK  146  A    between atoms: _353  and  _354
REMARK  147  A    between atoms: _354  and  _355
REMARK  148  A    between atoms: _355  and  _356
REMARK  149  A    between atoms: _356  and  _357
REMARK  150  A    between atoms: _361  and  _363
REMARK  151  A    between atoms: _363  and  _364
REMARK  152  A    between atoms: _363  and  _366
REMARK  153  A    between atoms: _366  and  _367
REMARK  154  A    between atoms: _370  and  _372
REMARK  155  A    between atoms: _372  and  _373
REMARK  156  A    between atoms: _375  and  _377
REMARK  157  A    between atoms: _377  and  _378
REMARK  158  A    between atoms: _380  and  _382
REMARK  159  A    between atoms: _382  and  _383
REMARK  160  A    between atoms: _382  and  _385
REMARK  161  A    between atoms: _385  and  _386
REMARK  162  A    between atoms: _389  and  _391
REMARK  163  A    between atoms: _391  and  _392
REMARK  164  A    between atoms: _394  and  _396
REMARK  165  A    between atoms: _396  and  _397
REMARK  166  A    between atoms: _399  and  _401
REMARK  167  A    between atoms: _401  and  _402
REMARK  168  A    between atoms: _401  and  _404
REMARK  169  A    between atoms: _404  and  _405
REMARK  170  A    between atoms: _411  and  _413
REMARK  171  A    between atoms: _413  and  _414
REMARK  172  A    between atoms: _413  and  _416
REMARK  173  A    between atoms: _416  and  _417
REMARK  174  A    between atoms: _420  and  _422
REMARK  175  A    between atoms: _422  and  _423
REMARK  176  A    between atoms: _422  and  _425
REMARK  177  A    between atoms: _425  and  _426
REMARK  178  A    between atoms: _429  and  _431
REMARK  179  A    between atoms: _431  and  _432
REMARK  180  A    between atoms: _431  and  _434
REMARK  181  A    between atoms: _434  and  _435
REMARK  182  A    between atoms: _439  and  _440
REMARK  183  A    between atoms: _445  and  _447
REMARK  184  A    between atoms: _447  and  _448
REMARK  185  A    between atoms: _447  and  _450
REMARK  186  A    between atoms: _453  and  _455
REMARK  187  A    between atoms: _455  and  _456
REMARK  188  A    between atoms: _455  and  _458
REMARK  189  A    between atoms: _458  and  _459
REMARK  190  A    between atoms: _464  and  _466
REMARK  191  A    between atoms: _466  and  _467
REMARK  192  A    between atoms: _466  and  _469
REMARK  193  A    between atoms: _469  and  _470
REMARK  194  A    between atoms: _473  and  _475
REMARK  195  A    between atoms: _475  and  _476
REMARK  196  A    between atoms: _475  and  _478
REMARK  197  A    between atoms: _478  and  _479
REMARK  198  A    between atoms: _482  and  _484
REMARK  199  A    between atoms: _484  and  _485
REMARK  200  A    between atoms: _487  and  _489
REMARK  201  A    between atoms: _489  and  _490
REMARK  202  A    between atoms: _489  and  _492
REMARK  203  A    between atoms: _492  and  _493
REMARK  204  A    between atoms: _493  and  _494
REMARK  205  A    between atoms: _494  and  _495
REMARK                            x       y       z     vdW  Elec       q    Type
REMARK                         _______ _______ _______ _____ _____    ______ ____
ROOT
ATOM      1  O   HOH     1      14.068  16.089  11.614  0.00  0.00    +0.000 OA
ENDROOT
TORSDOF 0
REMARK  Name = ../refined-set-2016/1ajx/1ajx_pocket.pdb
REMARK  205 active torsions:
REMARK  status: ('A' for Active; 'I' for Inactive)
REMARK    1  A    between atoms: _1  and  _3
REMARK    2  A    between atoms: _3  and  _4
REMARK    3  A    between atoms: _3  and  _6
REMARK    4  A    between atoms: _6  and  _7
REMARK    5  A    between atoms: _7  and  _8
REMARK    6  A    between atoms: _8  and  _9
REMARK    7  A    between atoms: _18  and  _20
REMARK    8  A    between atoms: _20  and  _21
REMARK    9  A    between atoms: _20  and  _23
REMARK   10  A    between atoms: _23  and  _24
REMARK   11  A    between atoms: _27  and  _29
REMARK   12  A    between atoms: _29  and  _30
REMARK   13  A    between atoms: _29  and  _32
REMARK   14  A    between atoms: _32  and  _33
REMARK   15  A    between atoms: _36  and  _38
REMARK   16  A    between atoms: _38  and  _39
REMARK   17  A    between atoms: _38  and  _41
REMARK   18  A    between atoms: _41  and  _42
REMARK   19  A    between atoms: _45  and  _47
REMARK   20  A    between atoms: _47  and  _48
REMARK   21  A    between atoms: _47  and  _50
REMARK   22  A    between atoms: _50  and  _51
REMARK   23  A    between atoms: _54  and  _56
REMARK   24  A    between atoms: _56  and  _57
REMARK   25  A    between atoms: _59  and  _61
REMARK   26  A    between atoms: _61  and  _62
REMARK   27  A    between atoms: _65  and  _67
REMARK   28  A    between atoms: _67  and  _68
REMARK   29  A    between atoms: _67  and  _70
REMARK   30  A    between atoms: _70  and  _71
REMARK   31  A    between atoms: _74  and  _76
REMARK   32  A    between atoms: _76  and  _77
REMARK   33  A    between atoms: _76  and  _79
REMARK   34  A    between atoms: _79  and  _80
REMARK   35  A    between atoms: _83  and  _85
REMARK   36  A    between atoms: _85  and  _86
REMARK   37  A    between atoms: _85  and  _88
REMARK   38  A    between atoms: _88  and  _89
REMARK   39  A    between atoms: _92  and  _94
REMARK   40  A    between atoms: _94  and  _95
REMARK   41  A    between atoms: _94  and  _97
REMARK   42  A    between atoms: _100  and  _102
REMARK   43  A    between atoms: _102  and  _103
REMARK   44  A    between atoms: _102  and  _105
REMARK   45  A    between atoms: _105  and  _106
REMARK   46  A    between atoms: _109  and  _111
REMARK   47  A    between atoms: _111  and  _112
REMARK   48  A    between atoms: _114  and  _116
REMARK   49  A    between atoms: _116  and  _117
REMARK   50  A    between atoms: _119  and  _121
REMARK   51  A    between atoms: _121  and  _122
REMARK   52  A    between atoms: _121  and  _124
REMARK   53  A    between atoms: _124  and  _125
REMARK   54  A    between atoms: _128  and  _130
REMARK   55  A    between atoms: _130  and  _131
REMARK   56  A    between atoms: _133  and  _135
REMARK   57  A    between atoms: _135  and  _136
REMARK   58  A    between atoms: _138  and  _140
REMARK   59  A    between atoms: _140  and  _141
REMARK   60  A    between atoms: _140  and  _143
REMARK   61  A    between atoms: _143  and  _144
REMARK   62  A    between atoms: _147  and  _149
REMARK   63  A    between atoms: _149  and  _150
REMARK   64  A    between atoms: _149  and  _152
REMARK   65  A    between atoms: _152  and  _153
REMARK   66  A    between atoms: _156  and  _158
REMARK   67  A    between atoms: _158  and  _159
REMARK   68  A    between atoms: _158  and  _161
REMARK   69  A    between atoms: _161  and  _162
REMARK   70  A    between atoms: _166  and  _167
REMARK   71  A    between atoms: _172  and  _174
REMARK   72  A    between atoms: _174  and  _175
REMARK   73  A    between atoms: _174  and  _177
REMARK   74  A    between atoms: _180  and  _182
REMARK   75  A    between atoms: _182  and  _183
REMARK   76  A    between atoms: _182  and  _185
REMARK   77  A    between atoms: _185  and  _186
REMARK   78  A    between atoms: _191  and  _193
REMARK   79  A    between atoms: _193  and  _194
REMARK   80  A    between atoms: _193  and  _196
REMARK   81  A    between atoms: _196  and  _197
REMARK   82  A    between atoms: _200  and  _202
REMARK   83  A    between atoms: _202  and  _203
REMARK   84  A    between atoms: _202  and  _205
REMARK   85  A    between atoms: _205  and  _206
REMARK   86  A    between atoms: _209  and  _211
REMARK   87  A    between atoms: _211  and  _212
REMARK   88  A    between atoms: _214  and  _216
REMARK   89  A    between atoms: _216  and  _217
REMARK   90  A    between atoms: _216  and  _219
REMARK   91  A    between atoms: _219  and  _220
REMARK   92  A    between atoms: _220  and  _221
REMARK   93  A    between atoms: _221  and  _222
REMARK   94  A    between atoms: _231  and  _233
REMARK   95  A    between atoms: _233  and  _234
REMARK   96  A    between atoms: _233  and  _236
REMARK   97  A    between atoms: _236  and  _237
REMARK   98  A    between atoms: _237  and  _238
REMARK   99  A    between atoms: _238  and  _239
REMARK  100  A    between atoms: _248  and  _250
REMARK  101  A    between atoms: _250  and  _251
REMARK  102  A    between atoms: _250  and  _253
REMARK  103  A    between atoms: _253  and  _254
REMARK  104  A    between atoms: _257  and  _259
REMARK  105  A    between atoms: _259  and  _260
REMARK  106  A    between atoms: _259  and  _262
REMARK  107  A    between atoms: _262  and  _263
REMARK  108  A    between atoms: _266  and  _268
REMARK  109  A    between atoms: _268  and  _269
REMARK  110  A    between atoms: _268  and  _271
REMARK  111  A    between atoms: _271  and  _272
REMARK  112  A    between atoms: _275  and  _277
REMARK  113  A    between atoms: _277  and  _278
REMARK  114  A    between atoms: _277  and  _280
REMARK  115  A    between atoms: _280  and  _281
REMARK  116  A    between atoms: _284  and  _286
REMARK  117  A    between atoms: _286  and  _287
REMARK  118  A    between atoms: _286  and  _289
REMARK  119  A    between atoms: _289  and  _290
REMARK  120  A    between atoms: _293  and  _295
REMARK  121  A    between atoms: _295  and  _296
REMARK  122  A    between atoms: _298  and  _300
REMARK  123  A    between atoms: _300  and  _301
REMARK  124  A    between atoms: _304  and  _306
REMARK  125  A    between atoms: _306  and  _307
REMARK  126  A    between atoms: _306  and  _309
REMARK  127  A    between atoms: _309  and  _310
REMARK  128  A    between atoms: _313  and  _315
REMARK  129  A    between atoms: _315  and  _316
REMARK  130  A    between atoms: _315  and  _318
REMARK  131  A    between atoms: _318  and  _319
REMARK  132  A    between atoms: _322  and  _324
REMARK  133  A    between atoms: _324  and  _325
REMARK  134  A    between atoms: _324  and  _327
REMARK  135  A    between atoms: _327  and  _328
REMARK  136  A    between atoms: _331  and  _333
REMARK  137  A    between atoms: _333  and  _334
REMARK  138  A    between atoms: _333  and  _336
REMARK  139  A    between atoms: _339  and  _341
REMARK  140  A    between atoms: _341  and  _342
REMARK  141  A    between atoms: _341  and  _344
REMARK  142  A    between atoms: _344  and  _345
REMARK  143  A    between atoms: _348  and  _350
REMARK  144  A    between atoms: _350  and  _351
REMARK  145  A    between atoms: _350  and  _353
REMARK  146  A    between atoms: _353  and  _354
REMARK  147  A    between atoms: _354  and  _355
REMARK  148  A    between atoms: _355  and  _356
REMARK  149  A    between atoms: _356  and  _357
REMARK  150  A    between atoms: _361  and  _363
REMARK  151  A    between atoms: _363  and  _364
REMARK  152  A    between atoms: _363  and  _366
REMARK  153  A    between atoms: _366  and  _367
REMARK  154  A    between atoms: _370  and  _372
REMARK  155  A    between atoms: _372  and  _373
REMARK  156  A    between atoms: _375  and  _377
REMARK  157  A    between atoms: _377  and  _378
REMARK  158  A    between atoms: _380  and  _382
REMARK  159  A    between atoms: _382  and  _383
REMARK  160  A    between atoms: _382  and  _385
REMARK  161  A    between atoms: _385  and  _386
REMARK  162  A    between atoms: _389  and  _391
REMARK  163  A    between atoms: _391  and  _392
REMARK  164  A    between atoms: _394  and  _396
REMARK  165  A    between atoms: _396  and  _397
REMARK  166  A    between atoms: _399  and  _401
REMARK  167  A    between atoms: _401  and  _402
REMARK  168  A    between atoms: _401  and  _404
REMARK  169  A    between atoms: _404  and  _405
REMARK  170  A    between atoms: _411  and  _413
REMARK  171  A    between atoms: _413  and  _414
REMARK  172  A    between atoms: _413  and  _416
REMARK  173  A    between atoms: _416  and  _417
REMARK  174  A    between atoms: _420  and  _422
REMARK  175  A    between atoms: _422  and  _423
REMARK  176  A    between atoms: _422  and  _425
REMARK  177  A    between atoms: _425  and  _426
REMARK  178  A    between atoms: _429  and  _431
REMARK  179  A    between atoms: _431  and  _432
REMARK  180  A    between atoms: _431  and  _434
REMARK  181  A    between atoms: _434  and  _435
REMARK  182  A    between atoms: _439  and  _440
REMARK  183  A    between atoms: _445  and  _447
REMARK  184  A    between atoms: _447  and  _448
REMARK  185  A    between atoms: _447  and  _450
REMARK  186  A    between atoms: _453  and  _455
REMARK  187  A    between atoms: _455  and  _456
REMARK  188  A    between atoms: _455  and  _458
REMARK  189  A    between atoms: _458  and  _459
REMARK  190  A    between atoms: _464  and  _466
REMARK  191  A    between atoms: _466  and  _467
REMARK  192  A    between atoms: _466  and  _469
REMARK  193  A    between atoms: _469  and  _470
REMARK  194  A    between atoms: _473  and  _475
REMARK  195  A    between atoms: _475  and  _476
REMARK  196  A    between atoms: _475  and  _478
REMARK  197  A    between atoms: _478  and  _479
REMARK  198  A    between atoms: _482  and  _484
REMARK  199  A    between atoms: _484  and  _485
REMARK  200  A    between atoms: _487  and  _489
REMARK  201  A    between atoms: _489  and  _490
REMARK  202  A    between atoms: _489  and  _492
REMARK  203  A    between atoms: _492  and  _493
REMARK  204  A    between atoms: _493  and  _494
REMARK  205  A    between atoms: _494  and  _495
REMARK                            x       y       z     vdW  Elec       q    Type
REMARK                         _______ _______ _______ _____ _____    ______ ____
ROOT
ATOM      1  O   HOH     1      18.121  17.705   6.841  0.00  0.00    +0.000 OA
ENDROOT
TORSDOF 0
REMARK  Name = ../refined-set-2016/1ajx/1ajx_pocket.pdb
REMARK  205 active torsions:
REMARK  status: ('A' for Active; 'I' for Inactive)
REMARK    1  A    between atoms: _1  and  _3
REMARK    2  A    between atoms: _3  and  _4
REMARK    3  A    between atoms: _3  and  _6
REMARK    4  A    between atoms: _6  and  _7
REMARK    5  A    between atoms: _7  and  _8
REMARK    6  A    between atoms: _8  and  _9
REMARK    7  A    between atoms: _18  and  _20
REMARK    8  A    between atoms: _20  and  _21
REMARK    9  A    between atoms: _20  and  _23
REMARK   10  A    between atoms: _23  and  _24
REMARK   11  A    between atoms: _27  and  _29
REMARK   12  A    between atoms: _29  and  _30
REMARK   13  A    between atoms: _29  and  _32
REMARK   14  A    between atoms: _32  and  _33
REMARK   15  A    between atoms: _36  and  _38
REMARK   16  A    between atoms: _38  and  _39
REMARK   17  A    between atoms: _38  and  _41
REMARK   18  A    between atoms: _41  and  _42
REMARK   19  A    between atoms: _45  and  _47
REMARK   20  A    between atoms: _47  and  _48
REMARK   21  A    between atoms: _47  and  _50
REMARK   22  A    between atoms: _50  and  _51
REMARK   23  A    between atoms: _54  and  _56
REMARK   24  A    between atoms: _56  and  _57
REMARK   25  A    between atoms: _59  and  _61
REMARK   26  A    between atoms: _61  and  _62
REMARK   27  A    between atoms: _65  and  _67
REMARK   28  A    between atoms: _67  and  _68
REMARK   29  A    between atoms: _67  and  _70
REMARK   30  A    between atoms: _70  and  _71
REMARK   31  A    between atoms: _74  and  _76
REMARK   32  A    between atoms: _76  and  _77
REMARK   33  A    between atoms: _76  and  _79
REMARK   34  A    between atoms: _79  and  _80
REMARK   35  A    between atoms: _83  and  _85
REMARK   36  A    between atoms: _85  and  _86
REMARK   37  A    between atoms: _85  and  _88
REMARK   38  A    between atoms: _88  and  _89
REMARK   39  A    between atoms: _92  and  _94
REMARK   40  A    between atoms: _94  and  _95
REMARK   41  A    between atoms: _94  and  _97
REMARK   42  A    between atoms: _100  and  _102
REMARK   43  A    between atoms: _102  and  _103
REMARK   44  A    between atoms: _102  and  _105
REMARK   45  A    between atoms: _105  and  _106
REMARK   46  A    between atoms: _109  and  _111
REMARK   47  A    between atoms: _111  and  _112
REMARK   48  A    between atoms: _114  and  _116
REMARK   49  A    between atoms: _116  and  _117
REMARK   50  A    between atoms: _119  and  _121
REMARK   51  A    between atoms: _121  and  _122
REMARK   52  A    between atoms: _121  and  _124
REMARK   53  A    between atoms: _124  and  _125
REMARK   54  A    between atoms: _128  and  _130
REMARK   55  A    between atoms: _130  and  _131
REMARK   56  A    between atoms: _133  and  _135
REMARK   57  A    between atoms: _135  and  _136
REMARK   58  A    between atoms: _138  and  _140
REMARK   59  A    between atoms: _140  and  _141
REMARK   60  A    between atoms: _140  and  _143
REMARK   61  A    between atoms: _143  and  _144
REMARK   62  A    between atoms: _147  and  _149
REMARK   63  A    between atoms: _149  and  _150
REMARK   64  A    between atoms: _149  and  _152
REMARK   65  A    between atoms: _152  and  _153
REMARK   66  A    between atoms: _156  and  _158
REMARK   67  A    between atoms: _158  and  _159
REMARK   68  A    between atoms: _158  and  _161
REMARK   69  A    between atoms: _161  and  _162
REMARK   70  A    between atoms: _166  and  _167
REMARK   71  A    between atoms: _172  and  _174
REMARK   72  A    between atoms: _174  and  _175
REMARK   73  A    between atoms: _174  and  _177
REMARK   74  A    between atoms: _180  and  _182
REMARK   75  A    between atoms: _182  and  _183
REMARK   76  A    between atoms: _182  and  _185
REMARK   77  A    between atoms: _185  and  _186
REMARK   78  A    between atoms: _191  and  _193
REMARK   79  A    between atoms: _193  and  _194
REMARK   80  A    between atoms: _193  and  _196
REMARK   81  A    between atoms: _196  and  _197
REMARK   82  A    between atoms: _200  and  _202
REMARK   83  A    between atoms: _202  and  _203
REMARK   84  A    between atoms: _202  and  _205
REMARK   85  A    between atoms: _205  and  _206
REMARK   86  A    between atoms: _209  and  _211
REMARK   87  A    between atoms: _211  and  _212
REMARK   88  A    between atoms: _214  and  _216
REMARK   89  A    between atoms: _216  and  _217
REMARK   90  A    between atoms: _216  and  _219
REMARK   91  A    between atoms: _219  and  _220
REMARK   92  A    between atoms: _220  and  _221
REMARK   93  A    between atoms: _221  and  _222
REMARK   94  A    between atoms: _231  and  _233
REMARK   95  A    between atoms: _233  and  _234
REMARK   96  A    between atoms: _233  and  _236
REMARK   97  A    between atoms: _236  and  _237
REMARK   98  A    between atoms: _237  and  _238
REMARK   99  A    between atoms: _238  and  _239
REMARK  100  A    between atoms: _248  and  _250
REMARK  101  A    between atoms: _250  and  _251
REMARK  102  A    between atoms: _250  and  _253
REMARK  103  A    between atoms: _253  and  _254
REMARK  104  A    between atoms: _257  and  _259
REMARK  105  A    between atoms: _259  and  _260
REMARK  106  A    between atoms: _259  and  _262
REMARK  107  A    between atoms: _262  and  _263
REMARK  108  A    between atoms: _266  and  _268
REMARK  109  A    between atoms: _268  and  _269
REMARK  110  A    between atoms: _268  and  _271
REMARK  111  A    between atoms: _271  and  _272
REMARK  112  A    between atoms: _275  and  _277
REMARK  113  A    between atoms: _277  and  _278
REMARK  114  A    between atoms: _277  and  _280
REMARK  115  A    between atoms: _280  and  _281
REMARK  116  A    between atoms: _284  and  _286
REMARK  117  A    between atoms: _286  and  _287
REMARK  118  A    between atoms: _286  and  _289
REMARK  119  A    between atoms: _289  and  _290
REMARK  120  A    between atoms: _293  and  _295
REMARK  121  A    between atoms: _295  and  _296
REMARK  122  A    between atoms: _298  and  _300
REMARK  123  A    between atoms: _300  and  _301
REMARK  124  A    between atoms: _304  and  _306
REMARK  125  A    between atoms: _306  and  _307
REMARK  126  A    between atoms: _306  and  _309
REMARK  127  A    between atoms: _309  and  _310
REMARK  128  A    between atoms: _313  and  _315
REMARK  129  A    between atoms: _315  and  _316
REMARK  130  A    between atoms: _315  and  _318
REMARK  131  A    between atoms: _318  and  _319
REMARK  132  A    between atoms: _322  and  _324
REMARK  133  A    between atoms: _324  and  _325
REMARK  134  A    between atoms: _324  and  _327
REMARK  135  A    between atoms: _327  and  _328
REMARK  136  A    between atoms: _331  and  _333
REMARK  137  A    between atoms: _333  and  _334
REMARK  138  A    between atoms: _333  and  _336
REMARK  139  A    between atoms: _339  and  _341
REMARK  140  A    between atoms: _341  and  _342
REMARK  141  A    between atoms: _341  and  _344
REMARK  142  A    between atoms: _344  and  _345
REMARK  143  A    between atoms: _348  and  _350
REMARK  144  A    between atoms: _350  and  _351
REMARK  145  A    between atoms: _350  and  _353
REMARK  146  A    between atoms: _353  and  _354
REMARK  147  A    between atoms: _354  and  _355
REMARK  148  A    between atoms: _355  and  _356
REMARK  149  A    between atoms: _356  and  _357
REMARK  150  A    between atoms: _361  and  _363
REMARK  151  A    between atoms: _363  and  _364
REMARK  152  A    between atoms: _363  and  _366
REMARK  153  A    between atoms: _366  and  _367
REMARK  154  A    between atoms: _370  and  _372
REMARK  155  A    between atoms: _372  and  _373
REMARK  156  A    between atoms: _375  and  _377
REMARK  157  A    between atoms: _377  and  _378
REMARK  158  A    between atoms: _380  and  _382
REMARK  159  A    between atoms: _382  and  _383
REMARK  160  A    between atoms: _382  and  _385
REMARK  161  A    between atoms: _385  and  _386
REMARK  162  A    between atoms: _389  and  _391
REMARK  163  A    between atoms: _391  and  _392
REMARK  164  A    between atoms: _394  and  _396
REMARK  165  A    between atoms: _396  and  _397
REMARK  166  A    between atoms: _399  and  _401
REMARK  167  A    between atoms: _401  and  _402
REMARK  168  A    between atoms: _401  and  _404
REMARK  169  A    between atoms: _404  and  _405
REMARK  170  A    between atoms: _411  and  _413
REMARK  171  A    between atoms: _413  and  _414
REMARK  172  A    between atoms: _413  and  _416
REMARK  173  A    between atoms: _416  and  _417
REMARK  174  A    between atoms: _420  and  _422
REMARK  175  A    between atoms: _422  and  _423
REMARK  176  A    between atoms: _422  and  _425
REMARK  177  A    between atoms: _425  and  _426
REMARK  178  A    between atoms: _429  and  _431
REMARK  179  A    between atoms: _431  and  _432
REMARK  180  A    between atoms: _431  and  _434
REMARK  181  A    between atoms: _434  and  _435
REMARK  182  A    between atoms: _439  and  _440
REMARK  183  A    between atoms: _445  and  _447
REMARK  184  A    between atoms: _447  and  _448
REMARK  185  A    between atoms: _447  and  _450
REMARK  186  A    between atoms: _453  and  _455
REMARK  187  A    between atoms: _455  and  _456
REMARK  188  A    between atoms: _455  and  _458
REMARK  189  A    between atoms: _458  and  _459
REMARK  190  A    between atoms: _464  and  _466
REMARK  191  A    between atoms: _466  and  _467
REMARK  192  A    between atoms: _466  and  _469
REMARK  193  A    between atoms: _469  and  _470
REMARK  194  A    between atoms: _473  and  _475
REMARK  195  A    between atoms: _475  and  _476
REMARK  196  A    between atoms: _475  and  _478
REMARK  197  A    between atoms: _478  and  _479
REMARK  198  A    between atoms: _482  and  _484
REMARK  199  A    between atoms: _484  and  _485
REMARK  200  A    between atoms: _487  and  _489
REMARK  201  A    between atoms: _489  and  _490
REMARK  202  A    between atoms: _489  and  _492
REMARK  203  A    between atoms: _492  and  _493
REMARK  204  A    between atoms: _493  and  _494
REMARK  205  A    between atoms: _494  and  _495
REMARK                            x       y       z     vdW  Elec       q    Type
REMARK                         _______ _______ _______ _____ _____    ______ ____
ROOT
ATOM      1  O   HOH     1      20.965  14.357   8.347  0.00  0.00    +0.000 OA
ENDROOT
TORSDOF 0
REMARK  Name = ../refined-set-2016/1ajx/1ajx_pocket.pdb
REMARK  205 active torsions:
REMARK  status: ('A' for Active; 'I' for Inactive)
REMARK    1  A    between atoms: _1  and  _3
REMARK    2  A    between atoms: _3  and  _4
REMARK    3  A    between atoms: _3  and  _6
REMARK    4  A    between atoms: _6  and  _7
REMARK    5  A    between atoms: _7  and  _8
REMARK    6  A    between atoms: _8  and  _9
REMARK    7  A    between atoms: _18  and  _20
REMARK    8  A    between atoms: _20  and  _21
REMARK    9  A    between atoms: _20  and  _23
REMARK   10  A    between atoms: _23  and  _24
REMARK   11  A    between atoms: _27  and  _29
REMARK   12  A    between atoms: _29  and  _30
REMARK   13  A    between atoms: _29  and  _32
REMARK   14  A    between atoms: _32  and  _33
REMARK   15  A    between atoms: _36  and  _38
REMARK   16  A    between atoms: _38  and  _39
REMARK   17  A    between atoms: _38  and  _41
REMARK   18  A    between atoms: _41  and  _42
REMARK   19  A    between atoms: _45  and  _47
REMARK   20  A    between atoms: _47  and  _48
REMARK   21  A    between atoms: _47  and  _50
REMARK   22  A    between atoms: _50  and  _51
REMARK   23  A    between atoms: _54  and  _56
REMARK   24  A    between atoms: _56  and  _57
REMARK   25  A    between atoms: _59  and  _61
REMARK   26  A    between atoms: _61  and  _62
REMARK   27  A    between atoms: _65  and  _67
REMARK   28  A    between atoms: _67  and  _68
REMARK   29  A    between atoms: _67  and  _70
REMARK   30  A    between atoms: _70  and  _71
REMARK   31  A    between atoms: _74  and  _76
REMARK   32  A    between atoms: _76  and  _77
REMARK   33  A    between atoms: _76  and  _79
REMARK   34  A    between atoms: _79  and  _80
REMARK   35  A    between atoms: _83  and  _85
REMARK   36  A    between atoms: _85  and  _86
REMARK   37  A    between atoms: _85  and  _88
REMARK   38  A    between atoms: _88  and  _89
REMARK   39  A    between atoms: _92  and  _94
REMARK   40  A    between atoms: _94  and  _95
REMARK   41  A    between atoms: _94  and  _97
REMARK   42  A    between atoms: _100  and  _102
REMARK   43  A    between atoms: _102  and  _103
REMARK   44  A    between atoms: _102  and  _105
REMARK   45  A    between atoms: _105  and  _106
REMARK   46  A    between atoms: _109  and  _111
REMARK   47  A    between atoms: _111  and  _112
REMARK   48  A    between atoms: _114  and  _116
REMARK   49  A    between atoms: _116  and  _117
REMARK   50  A    between atoms: _119  and  _121
REMARK   51  A    between atoms: _121  and  _122
REMARK   52  A    between atoms: _121  and  _124
REMARK   53  A    between atoms: _124  and  _125
REMARK   54  A    between atoms: _128  and  _130
REMARK   55  A    between atoms: _130  and  _131
REMARK   56  A    between atoms: _133  and  _135
REMARK   57  A    between atoms: _135  and  _136
REMARK   58  A    between atoms: _138  and  _140
REMARK   59  A    between atoms: _140  and  _141
REMARK   60  A    between atoms: _140  and  _143
REMARK   61  A    between atoms: _143  and  _144
REMARK   62  A    between atoms: _147  and  _149
REMARK   63  A    between atoms: _149  and  _150
REMARK   64  A    between atoms: _149  and  _152
REMARK   65  A    between atoms: _152  and  _153
REMARK   66  A    between atoms: _156  and  _158
REMARK   67  A    between atoms: _158  and  _159
REMARK   68  A    between atoms: _158  and  _161
REMARK   69  A    between atoms: _161  and  _162
REMARK   70  A    between atoms: _166  and  _167
REMARK   71  A    between atoms: _172  and  _174
REMARK   72  A    between atoms: _174  and  _175
REMARK   73  A    between atoms: _174  and  _177
REMARK   74  A    between atoms: _180  and  _182
REMARK   75  A    between atoms: _182  and  _183
REMARK   76  A    between atoms: _182  and  _185
REMARK   77  A    between atoms: _185  and  _186
REMARK   78  A    between atoms: _191  and  _193
REMARK   79  A    between atoms: _193  and  _194
REMARK   80  A    between atoms: _193  and  _196
REMARK   81  A    between atoms: _196  and  _197
REMARK   82  A    between atoms: _200  and  _202
REMARK   83  A    between atoms: _202  and  _203
REMARK   84  A    between atoms: _202  and  _205
REMARK   85  A    between atoms: _205  and  _206
REMARK   86  A    between atoms: _209  and  _211
REMARK   87  A    between atoms: _211  and  _212
REMARK   88  A    between atoms: _214  and  _216
REMARK   89  A    between atoms: _216  and  _217
REMARK   90  A    between atoms: _216  and  _219
REMARK   91  A    between atoms: _219  and  _220
REMARK   92  A    between atoms: _220  and  _221
REMARK   93  A    between atoms: _221  and  _222
REMARK   94  A    between atoms: _231  and  _233
REMARK   95  A    between atoms: _233  and  _234
REMARK   96  A    between atoms: _233  and  _236
REMARK   97  A    between atoms: _236  and  _237
REMARK   98  A    between atoms: _237  and  _238
REMARK   99  A    between atoms: _238  and  _239
REMARK  100  A    between atoms: _248  and  _250
REMARK  101  A    between atoms: _250  and  _251
REMARK  102  A    between atoms: _250  and  _253
REMARK  103  A    between atoms: _253  and  _254
REMARK  104  A    between atoms: _257  and  _259
REMARK  105  A    between atoms: _259  and  _260
REMARK  106  A    between atoms: _259  and  _262
REMARK  107  A    between atoms: _262  and  _263
REMARK  108  A    between atoms: _266  and  _268
REMARK  109  A    between atoms: _268  and  _269
REMARK  110  A    between atoms: _268  and  _271
REMARK  111  A    between atoms: _271  and  _272
REMARK  112  A    between atoms: _275  and  _277
REMARK  113  A    between atoms: _277  and  _278
REMARK  114  A    between atoms: _277  and  _280
REMARK  115  A    between atoms: _280  and  _281
REMARK  116  A    between atoms: _284  and  _286
REMARK  117  A    between atoms: _286  and  _287
REMARK  118  A    between atoms: _286  and  _289
REMARK  119  A    between atoms: _289  and  _290
REMARK  120  A    between atoms: _293  and  _295
REMARK  121  A    between atoms: _295  and  _296
REMARK  122  A    between atoms: _298  and  _300
REMARK  123  A    between atoms: _300  and  _301
REMARK  124  A    between atoms: _304  and  _306
REMARK  125  A    between atoms: _306  and  _307
REMARK  126  A    between atoms: _306  and  _309
REMARK  127  A    between atoms: _309  and  _310
REMARK  128  A    between atoms: _313  and  _315
REMARK  129  A    between atoms: _315  and  _316
REMARK  130  A    between atoms: _315  and  _318
REMARK  131  A    between atoms: _318  and  _319
REMARK  132  A    between atoms: _322  and  _324
REMARK  133  A    between atoms: _324  and  _325
REMARK  134  A    between atoms: _324  and  _327
REMARK  135  A    between atoms: _327  and  _328
REMARK  136  A    between atoms: _331  and  _333
REMARK  137  A    between atoms: _333  and  _334
REMARK  138  A    between atoms: _333  and  _336
REMARK  139  A    between atoms: _339  and  _341
REMARK  140  A    between atoms: _341  and  _342
REMARK  141  A    between atoms: _341  and  _344
REMARK  142  A    between atoms: _344  and  _345
REMARK  143  A    between atoms: _348  and  _350
REMARK  144  A    between atoms: _350  and  _351
REMARK  145  A    between atoms: _350  and  _353
REMARK  146  A    between atoms: _353  and  _354
REMARK  147  A    between atoms: _354  and  _355
REMARK  148  A    between atoms: _355  and  _356
REMARK  149  A    between atoms: _356  and  _357
REMARK  150  A    between atoms: _361  and  _363
REMARK  151  A    between atoms: _363  and  _364
REMARK  152  A    between atoms: _363  and  _366
REMARK  153  A    between atoms: _366  and  _367
REMARK  154  A    between atoms: _370  and  _372
REMARK  155  A    between atoms: _372  and  _373
REMARK  156  A    between atoms: _375  and  _377
REMARK  157  A    between atoms: _377  and  _378
REMARK  158  A    between atoms: _380  and  _382
REMARK  159  A    between atoms: _382  and  _383
REMARK  160  A    between atoms: _382  and  _385
REMARK  161  A    between atoms: _385  and  _386
REMARK  162  A    between atoms: _389  and  _391
REMARK  163  A    between atoms: _391  and  _392
REMARK  164  A    between atoms: _394  and  _396
REMARK  165  A    between atoms: _396  and  _397
REMARK  166  A    between atoms: _399  and  _401
REMARK  167  A    between atoms: _401  and  _402
REMARK  168  A    between atoms: _401  and  _404
REMARK  169  A    between atoms: _404  and  _405
REMARK  170  A    between atoms: _411  and  _413
REMARK  171  A    between atoms: _413  and  _414
REMARK  172  A    between atoms: _413  and  _416
REMARK  173  A    between atoms: _416  and  _417
REMARK  174  A    between atoms: _420  and  _422
REMARK  175  A    between atoms: _422  and  _423
REMARK  176  A    between atoms: _422  and  _425
REMARK  177  A    between atoms: _425  and  _426
REMARK  178  A    between atoms: _429  and  _431
REMARK  179  A    between atoms: _431  and  _432
REMARK  180  A    between atoms: _431  and  _434
REMARK  181  A    between atoms: _434  and  _435
REMARK  182  A    between atoms: _439  and  _440
REMARK  183  A    between atoms: _445  and  _447
REMARK  184  A    between atoms: _447  and  _448
REMARK  185  A    between atoms: _447  and  _450
REMARK  186  A    between atoms: _453  and  _455
REMARK  187  A    between atoms: _455  and  _456
REMARK  188  A    between atoms: _455  and  _458
REMARK  189  A    between atoms: _458  and  _459
REMARK  190  A    between atoms: _464  and  _466
REMARK  191  A    between atoms: _466  and  _467
REMARK  192  A    between atoms: _466  and  _469
REMARK  193  A    between atoms: _469  and  _470
REMARK  194  A    between atoms: _473  and  _475
REMARK  195  A    between atoms: _475  and  _476
REMARK  196  A    between atoms: _475  and  _478
REMARK  197  A    between atoms: _478  and  _479
REMARK  198  A    between atoms: _482  and  _484
REMARK  199  A    between atoms: _484  and  _485
REMARK  200  A    between atoms: _487  and  _489
REMARK  201  A    between atoms: _489  and  _490
REMARK  202  A    between atoms: _489  and  _492
REMARK  203  A    between atoms: _492  and  _493
REMARK  204  A    between atoms: _493  and  _494
REMARK  205  A    between atoms: _494  and  _495
REMARK                            x       y       z     vdW  Elec       q    Type
REMARK                         _______ _______ _______ _____ _____    ______ ____
ROOT
ATOM      1  O   HOH     1      18.822  17.023   9.514  0.00  0.00    +0.000 OA
ENDROOT
TORSDOF 0
REMARK  Name = ../refined-set-2016/1ajx/1ajx_pocket.pdb
REMARK  205 active torsions:
REMARK  status: ('A' for Active; 'I' for Inactive)
REMARK    1  A    between atoms: _1  and  _3
REMARK    2  A    between atoms: _3  and  _4
REMARK    3  A    between atoms: _3  and  _6
REMARK    4  A    between atoms: _6  and  _7
REMARK    5  A    between atoms: _7  and  _8
REMARK    6  A    between atoms: _8  and  _9
REMARK    7  A    between atoms: _18  and  _20
REMARK    8  A    between atoms: _20  and  _21
REMARK    9  A    between atoms: _20  and  _23
REMARK   10  A    between atoms: _23  and  _24
REMARK   11  A    between atoms: _27  and  _29
REMARK   12  A    between atoms: _29  and  _30
REMARK   13  A    between atoms: _29  and  _32
REMARK   14  A    between atoms: _32  and  _33
REMARK   15  A    between atoms: _36  and  _38
REMARK   16  A    between atoms: _38  and  _39
REMARK   17  A    between atoms: _38  and  _41
REMARK   18  A    between atoms: _41  and  _42
REMARK   19  A    between atoms: _45  and  _47
REMARK   20  A    between atoms: _47  and  _48
REMARK   21  A    between atoms: _47  and  _50
REMARK   22  A    between atoms: _50  and  _51
REMARK   23  A    between atoms: _54  and  _56
REMARK   24  A    between atoms: _56  and  _57
REMARK   25  A    between atoms: _59  and  _61
REMARK   26  A    between atoms: _61  and  _62
REMARK   27  A    between atoms: _65  and  _67
REMARK   28  A    between atoms: _67  and  _68
REMARK   29  A    between atoms: _67  and  _70
REMARK   30  A    between atoms: _70  and  _71
REMARK   31  A    between atoms: _74  and  _76
REMARK   32  A    between atoms: _76  and  _77
REMARK   33  A    between atoms: _76  and  _79
REMARK   34  A    between atoms: _79  and  _80
REMARK   35  A    between atoms: _83  and  _85
REMARK   36  A    between atoms: _85  and  _86
REMARK   37  A    between atoms: _85  and  _88
REMARK   38  A    between atoms: _88  and  _89
REMARK   39  A    between atoms: _92  and  _94
REMARK   40  A    between atoms: _94  and  _95
REMARK   41  A    between atoms: _94  and  _97
REMARK   42  A    between atoms: _100  and  _102
REMARK   43  A    between atoms: _102  and  _103
REMARK   44  A    between atoms: _102  and  _105
REMARK   45  A    between atoms: _105  and  _106
REMARK   46  A    between atoms: _109  and  _111
REMARK   47  A    between atoms: _111  and  _112
REMARK   48  A    between atoms: _114  and  _116
REMARK   49  A    between atoms: _116  and  _117
REMARK   50  A    between atoms: _119  and  _121
REMARK   51  A    between atoms: _121  and  _122
REMARK   52  A    between atoms: _121  and  _124
REMARK   53  A    between atoms: _124  and  _125
REMARK   54  A    between atoms: _128  and  _130
REMARK   55  A    between atoms: _130  and  _131
REMARK   56  A    between atoms: _133  and  _135
REMARK   57  A    between atoms: _135  and  _136
REMARK   58  A    between atoms: _138  and  _140
REMARK   59  A    between atoms: _140  and  _141
REMARK   60  A    between atoms: _140  and  _143
REMARK   61  A    between atoms: _143  and  _144
REMARK   62  A    between atoms: _147  and  _149
REMARK   63  A    between atoms: _149  and  _150
REMARK   64  A    between atoms: _149  and  _152
REMARK   65  A    between atoms: _152  and  _153
REMARK   66  A    between atoms: _156  and  _158
REMARK   67  A    between atoms: _158  and  _159
REMARK   68  A    between atoms: _158  and  _161
REMARK   69  A    between atoms: _161  and  _162
REMARK   70  A    between atoms: _166  and  _167
REMARK   71  A    between atoms: _172  and  _174
REMARK   72  A    between atoms: _174  and  _175
REMARK   73  A    between atoms: _174  and  _177
REMARK   74  A    between atoms: _180  and  _182
REMARK   75  A    between atoms: _182  and  _183
REMARK   76  A    between atoms: _182  and  _185
REMARK   77  A    between atoms: _185  and  _186
REMARK   78  A    between atoms: _191  and  _193
REMARK   79  A    between atoms: _193  and  _194
REMARK   80  A    between atoms: _193  and  _196
REMARK   81  A    between atoms: _196  and  _197
REMARK   82  A    between atoms: _200  and  _202
REMARK   83  A    between atoms: _202  and  _203
REMARK   84  A    between atoms: _202  and  _205
REMARK   85  A    between atoms: _205  and  _206
REMARK   86  A    between atoms: _209  and  _211
REMARK   87  A    between atoms: _211  and  _212
REMARK   88  A    between atoms: _214  and  _216
REMARK   89  A    between atoms: _216  and  _217
REMARK   90  A    between atoms: _216  and  _219
REMARK   91  A    between atoms: _219  and  _220
REMARK   92  A    between atoms: _220  and  _221
REMARK   93  A    between atoms: _221  and  _222
REMARK   94  A    between atoms: _231  and  _233
REMARK   95  A    between atoms: _233  and  _234
REMARK   96  A    between atoms: _233  and  _236
REMARK   97  A    between atoms: _236  and  _237
REMARK   98  A    between atoms: _237  and  _238
REMARK   99  A    between atoms: _238  and  _239
REMARK  100  A    between atoms: _248  and  _250
REMARK  101  A    between atoms: _250  and  _251
REMARK  102  A    between atoms: _250  and  _253
REMARK  103  A    between atoms: _253  and  _254
REMARK  104  A    between atoms: _257  and  _259
REMARK  105  A    between atoms: _259  and  _260
REMARK  106  A    between atoms: _259  and  _262
REMARK  107  A    between atoms: _262  and  _263
REMARK  108  A    between atoms: _266  and  _268
REMARK  109  A    between atoms: _268  and  _269
REMARK  110  A    between atoms: _268  and  _271
REMARK  111  A    between atoms: _271  and  _272
REMARK  112  A    between atoms: _275  and  _277
REMARK  113  A    between atoms: _277  and  _278
REMARK  114  A    between atoms: _277  and  _280
REMARK  115  A    between atoms: _280  and  _281
REMARK  116  A    between atoms: _284  and  _286
REMARK  117  A    between atoms: _286  and  _287
REMARK  118  A    between atoms: _286  and  _289
REMARK  119  A    between atoms: _289  and  _290
REMARK  120  A    between atoms: _293  and  _295
REMARK  121  A    between atoms: _295  and  _296
REMARK  122  A    between atoms: _298  and  _300
REMARK  123  A    between atoms: _300  and  _301
REMARK  124  A    between atoms: _304  and  _306
REMARK  125  A    between atoms: _306  and  _307
REMARK  126  A    between atoms: _306  and  _309
REMARK  127  A    between atoms: _309  and  _310
REMARK  128  A    between atoms: _313  and  _315
REMARK  129  A    between atoms: _315  and  _316
REMARK  130  A    between atoms: _315  and  _318
REMARK  131  A    between atoms: _318  and  _319
REMARK  132  A    between atoms: _322  and  _324
REMARK  133  A    between atoms: _324  and  _325
REMARK  134  A    between atoms: _324  and  _327
REMARK  135  A    between atoms: _327  and  _328
REMARK  136  A    between atoms: _331  and  _333
REMARK  137  A    between atoms: _333  and  _334
REMARK  138  A    between atoms: _333  and  _336
REMARK  139  A    between atoms: _339  and  _341
REMARK  140  A    between atoms: _341  and  _342
REMARK  141  A    between atoms: _341  and  _344
REMARK  142  A    between atoms: _344  and  _345
REMARK  143  A    between atoms: _348  and  _350
REMARK  144  A    between atoms: _350  and  _351
REMARK  145  A    between atoms: _350  and  _353
REMARK  146  A    between atoms: _353  and  _354
REMARK  147  A    between atoms: _354  and  _355
REMARK  148  A    between atoms: _355  and  _356
REMARK  149  A    between atoms: _356  and  _357
REMARK  150  A    between atoms: _361  and  _363
REMARK  151  A    between atoms: _363  and  _364
REMARK  152  A    between atoms: _363  and  _366
REMARK  153  A    between atoms: _366  and  _367
REMARK  154  A    between atoms: _370  and  _372
REMARK  155  A    between atoms: _372  and  _373
REMARK  156  A    between atoms: _375  and  _377
REMARK  157  A    between atoms: _377  and  _378
REMARK  158  A    between atoms: _380  and  _382
REMARK  159  A    between atoms: _382  and  _383
REMARK  160  A    between atoms: _382  and  _385
REMARK  161  A    between atoms: _385  and  _386
REMARK  162  A    between atoms: _389  and  _391
REMARK  163  A    between atoms: _391  and  _392
REMARK  164  A    between atoms: _394  and  _396
REMARK  165  A    between atoms: _396  and  _397
REMARK  166  A    between atoms: _399  and  _401
REMARK  167  A    between atoms: _401  and  _402
REMARK  168  A    between atoms: _401  and  _404
REMARK  169  A    between atoms: _404  and  _405
REMARK  170  A    between atoms: _411  and  _413
REMARK  171  A    between atoms: _413  and  _414
REMARK  172  A    between atoms: _413  and  _416
REMARK  173  A    between atoms: _416  and  _417
REMARK  174  A    between atoms: _420  and  _422
REMARK  175  A    between atoms: _422  and  _423
REMARK  176  A    between atoms: _422  and  _425
REMARK  177  A    between atoms: _425  and  _426
REMARK  178  A    between atoms: _429  and  _431
REMARK  179  A    between atoms: _431  and  _432
REMARK  180  A    between atoms: _431  and  _434
REMARK  181  A    between atoms: _434  and  _435
REMARK  182  A    between atoms: _439  and  _440
REMARK  183  A    between atoms: _445  and  _447
REMARK  184  A    between atoms: _447  and  _448
REMARK  185  A    between atoms: _447  and  _450
REMARK  186  A    between atoms: _453  and  _455
REMARK  187  A    between atoms: _455  and  _456
REMARK  188  A    between atoms: _455  and  _458
REMARK  189  A    between atoms: _458  and  _459
REMARK  190  A    between atoms: _464  and  _466
REMARK  191  A    between atoms: _466  and  _467
REMARK  192  A    between atoms: _466  and  _469
REMARK  193  A    between atoms: _469  and  _470
REMARK  194  A    between atoms: _473  and  _475
REMARK  195  A    between atoms: _475  and  _476
REMARK  196  A    between atoms: _475  and  _478
REMARK  197  A    between atoms: _478  and  _479
REMARK  198  A    between atoms: _482  and  _484
REMARK  199  A    between atoms: _484  and  _485
REMARK  200  A    between atoms: _487  and  _489
REMARK  201  A    between atoms: _489  and  _490
REMARK  202  A    between atoms: _489  and  _492
REMARK  203  A    between atoms: _492  and  _493
REMARK  204  A    between atoms: _493  and  _494
REMARK  205  A    between atoms: _494  and  _495
REMARK                            x       y       z     vdW  Elec       q    Type
REMARK                         _______ _______ _______ _____ _____    ______ ____
ROOT
ATOM      1  O   HOH     1      18.270  15.000   6.472  0.00  0.00    +0.000 OA
ENDROOT
TORSDOF 0
