REMARK  Name = ../refined-set-2016/4msa/4msa_pocket.pdb
REMARK  124 active torsions:
REMARK  status: ('A' for Active; 'I' for Inactive)
REMARK    1  A    between atoms: _1  and  _3
REMARK    2  A    between atoms: _3  and  _4
REMARK    3  A    between atoms: _3  and  _6
REMARK    4  A    between atoms: _6  and  _7
REMARK    5  A    between atoms: _12  and  _13
REMARK    6  A    between atoms: _15  and  _17
REMARK    7  A    between atoms: _17  and  _18
REMARK    8  A    between atoms: _17  and  _20
REMARK    9  A    between atoms: _20  and  _21
REMARK   10  A    between atoms: _26  and  _28
REMARK   11  A    between atoms: _28  and  _29
REMARK   12  A    between atoms: _28  and  _31
REMARK   13  A    between atoms: _31  and  _32
REMARK   14  A    between atoms: _36  and  NI_307
REMARK   15  A    between atoms: _37  and  _39
REMARK   16  A    between atoms: _39  and  _40
REMARK   17  A    between atoms: _39  and  _42
REMARK   18  A    between atoms: _45  and  _47
REMARK   19  A    between atoms: _47  and  _48
REMARK   20  A    between atoms: _47  and  _50
REMARK   21  A    between atoms: _50  and  _51
REMARK   22  A    between atoms: _54  and  _56
REMARK   23  A    between atoms: _56  and  _57
REMARK   24  A    between atoms: _56  and  _59
REMARK   25  A    between atoms: _59  and  _60
REMARK   26  A    between atoms: _63  and  _65
REMARK   27  A    between atoms: _65  and  _66
REMARK   28  A    between atoms: _69  and  _71
REMARK   29  A    between atoms: _71  and  _72
REMARK   30  A    between atoms: _71  and  _74
REMARK   31  A    between atoms: _76  and  _78
REMARK   32  A    between atoms: _78  and  _79
REMARK   33  A    between atoms: _78  and  _81
REMARK   34  A    between atoms: _81  and  _82
REMARK   35  A    between atoms: _82  and  _84
REMARK   36  A    between atoms: _84  and  NI_307
REMARK   37  A    between atoms: _85  and  _87
REMARK   38  A    between atoms: _87  and  _88
REMARK   39  A    between atoms: _87  and  _90
REMARK   40  A    between atoms: _90  and  _91
REMARK   41  A    between atoms: _94  and  _96
REMARK   42  A    between atoms: _96  and  _97
REMARK   43  A    between atoms: _96  and  _99
REMARK   44  A    between atoms: _101  and  _103
REMARK   45  A    between atoms: _103  and  _104
REMARK   46  A    between atoms: _103  and  _106
REMARK   47  A    between atoms: _106  and  _107
REMARK   48  A    between atoms: _109  and  _111
REMARK   49  A    between atoms: _111  and  _112
REMARK   50  A    between atoms: _111  and  _114
REMARK   51  A    between atoms: _117  and  _119
REMARK   52  A    between atoms: _119  and  _120
REMARK   53  A    between atoms: _119  and  _122
REMARK   54  A    between atoms: _122  and  _123
REMARK   55  A    between atoms: _126  and  _128
REMARK   56  A    between atoms: _128  and  _129
REMARK   57  A    between atoms: _128  and  _131
REMARK   58  A    between atoms: _131  and  _132
REMARK   59  A    between atoms: _132  and  _133
REMARK   60  A    between atoms: _133  and  _134
REMARK   61  A    between atoms: _134  and  _135
REMARK   62  A    between atoms: _139  and  _141
REMARK   63  A    between atoms: _141  and  _142
REMARK   64  A    between atoms: _141  and  _144
REMARK   65  A    between atoms: _144  and  _145
REMARK   66  A    between atoms: _148  and  _150
REMARK   67  A    between atoms: _150  and  _151
REMARK   68  A    between atoms: _150  and  _153
REMARK   69  A    between atoms: _153  and  _154
REMARK   70  A    between atoms: _157  and  _159
REMARK   71  A    between atoms: _159  and  _160
REMARK   72  A    between atoms: _163  and  _165
REMARK   73  A    between atoms: _165  and  _166
REMARK   74  A    between atoms: _165  and  _168
REMARK   75  A    between atoms: _168  and  _169
REMARK   76  A    between atoms: _172  and  _174
REMARK   77  A    between atoms: _174  and  _175
REMARK   78  A    between atoms: _174  and  _177
REMARK   79  A    between atoms: _177  and  _178
REMARK   80  A    between atoms: _183  and  _184
REMARK   81  A    between atoms: _186  and  _188
REMARK   82  A    between atoms: _188  and  _189
REMARK   83  A    between atoms: _188  and  _191
REMARK   84  A    between atoms: _191  and  _192
REMARK   85  A    between atoms: _198  and  _200
REMARK   86  A    between atoms: _200  and  _201
REMARK   87  A    between atoms: _200  and  _203
REMARK   88  A    between atoms: _203  and  _204
REMARK   89  A    between atoms: _204  and  _205
REMARK   90  A    between atoms: _207  and  _209
REMARK   91  A    between atoms: _209  and  _210
REMARK   92  A    between atoms: _209  and  _212
REMARK   93  A    between atoms: _215  and  _217
REMARK   94  A    between atoms: _217  and  _218
REMARK   95  A    between atoms: _220  and  _222
REMARK   96  A    between atoms: _222  and  _223
REMARK   97  A    between atoms: _222  and  _225
REMARK   98  A    between atoms: _225  and  _226
REMARK   99  A    between atoms: _226  and  _227
REMARK  100  A    between atoms: _232  and  _234
REMARK  101  A    between atoms: _234  and  _235
REMARK  102  A    between atoms: _237  and  _239
REMARK  103  A    between atoms: _239  and  _240
REMARK  104  A    between atoms: _239  and  _242
REMARK  105  A    between atoms: _242  and  _243
REMARK  106  A    between atoms: _249  and  _251
REMARK  107  A    between atoms: _251  and  _252
REMARK  108  A    between atoms: _251  and  _254
REMARK  109  A    between atoms: _254  and  _255
REMARK  110  A    between atoms: _260  and  _261
REMARK  111  A    between atoms: _263  and  _265
REMARK  112  A    between atoms: _265  and  _266
REMARK  113  A    between atoms: _265  and  _268
REMARK  114  A    between atoms: _271  and  _273
REMARK  115  A    between atoms: _273  and  _274
REMARK  116  A    between atoms: _277  and  _279
REMARK  117  A    between atoms: _279  and  _280
REMARK  118  A    between atoms: _279  and  _282
REMARK  119  A    between atoms: _282  and  _283
REMARK  120  A    between atoms: _288  and  _289
REMARK  121  A    between atoms: _291  and  _293
REMARK  122  A    between atoms: _293  and  _294
REMARK  123  A    between atoms: _293  and  _296
REMARK  124  A    between atoms: _296  and  _297
REMARK                            x       y       z     vdW  Elec       q    Type
REMARK                         _______ _______ _______ _____ _____    ______ ____
ROOT
ATOM      1  C   TYR A   1      13.822 -28.480 -29.675  0.00  0.00    +0.239 C 
ATOM      2  O   TYR A   1      13.475 -28.769 -28.534  0.00  0.00    -0.274 OA
ATOM      3  N   HIS A   2      14.301 -29.388 -30.531  0.00  0.00    -0.298 N 
ATOM      4  H   HIS A   2      14.642 -29.080 -31.464  0.00  0.00    +0.150 HD
ENDROOT
BRANCH   1   5
ATOM      5  CA  TYR A   1      13.681 -27.032 -30.162  0.00  0.00    +0.149 C 
BRANCH   5   6
ATOM      6  N   TYR A   1      14.902 -26.439 -30.745  0.00  0.00    -0.238 NA
ATOM      7  H   TYR A   1      15.377 -26.910 -31.541  0.00  0.00    +0.142 HD
ENDBRANCH   5   6
BRANCH   5   8
ATOM      8  CB  TYR A   1      12.507 -26.916 -31.136  0.00  0.00    +0.053 C 
BRANCH   8   9
ATOM      9  CG  TYR A   1      11.239 -27.522 -30.587  0.00  0.00    -0.020 A 
ATOM     10  CD2 TYR A   1      10.582 -26.941 -29.514  0.00  0.00    -0.001 A 
ATOM     11  CE2 TYR A   1       9.427 -27.508 -28.987  0.00  0.00    +0.036 A 
ATOM     12  CZ  TYR A   1       8.916 -28.654 -29.545  0.00  0.00    +0.134 A 
ATOM     13  CE1 TYR A   1       9.554 -29.267 -30.599  0.00  0.00    +0.036 A 
ATOM     14  CD1 TYR A   1      10.718 -28.696 -31.121  0.00  0.00    -0.001 A 
BRANCH  12  15
ATOM     15  OH  TYR A   1       7.758 -29.213 -29.054  0.00  0.00    -0.506 OA
ATOM     16  HH  TYR A   1       7.420 -28.663 -28.304  0.00  0.00    +0.292 HD
ENDBRANCH  12  15
ENDBRANCH   8   9
ENDBRANCH   5   8
ENDBRANCH   1   5
BRANCH   3  17
ATOM     17  CA  HIS A   2      14.355 -30.832 -30.173  0.00  0.00    +0.143 C 
BRANCH  17  18
ATOM     18  C   HIS A   2      15.567 -31.120 -29.302  0.00  0.00    +0.227 C 
ATOM     19  O   HIS A   2      16.479 -31.838 -29.698  0.00  0.00    -0.286 OA
ENDBRANCH  17  18
BRANCH  17  20
ATOM     20  CB  HIS A   2      14.332 -31.698 -31.424  0.00  0.00    +0.075 C 
BRANCH  20  21
ATOM     21  CG  HIS A   2      13.019 -31.665 -32.139  0.00  0.00    +0.082 A 
ATOM     22  CD2 HIS A   2      11.850 -32.302 -31.884  0.00  0.00    +0.115 A 
ATOM     23  NE2 HIS A   2      10.948 -31.889 -32.838  0.00  0.00    -0.221 NA
ATOM     24  CE1 HIS A   2      11.538 -31.025 -33.641  0.00  0.00    +0.199 A 
ATOM     25  ND1 HIS A   2      12.789 -30.861 -33.237  0.00  0.00    -0.227 NA
ENDBRANCH  20  21
ENDBRANCH  17  20
ENDBRANCH   3  17
TORSDOF 9
REMARK  Name = ../refined-set-2016/4msa/4msa_pocket.pdb
REMARK  124 active torsions:
REMARK  status: ('A' for Active; 'I' for Inactive)
REMARK    1  A    between atoms: _1  and  _3
REMARK    2  A    between atoms: _3  and  _4
REMARK    3  A    between atoms: _3  and  _6
REMARK    4  A    between atoms: _6  and  _7
REMARK    5  A    between atoms: _12  and  _13
REMARK    6  A    between atoms: _15  and  _17
REMARK    7  A    between atoms: _17  and  _18
REMARK    8  A    between atoms: _17  and  _20
REMARK    9  A    between atoms: _20  and  _21
REMARK   10  A    between atoms: _26  and  _28
REMARK   11  A    between atoms: _28  and  _29
REMARK   12  A    between atoms: _28  and  _31
REMARK   13  A    between atoms: _31  and  _32
REMARK   14  A    between atoms: _36  and  NI_307
REMARK   15  A    between atoms: _37  and  _39
REMARK   16  A    between atoms: _39  and  _40
REMARK   17  A    between atoms: _39  and  _42
REMARK   18  A    between atoms: _45  and  _47
REMARK   19  A    between atoms: _47  and  _48
REMARK   20  A    between atoms: _47  and  _50
REMARK   21  A    between atoms: _50  and  _51
REMARK   22  A    between atoms: _54  and  _56
REMARK   23  A    between atoms: _56  and  _57
REMARK   24  A    between atoms: _56  and  _59
REMARK   25  A    between atoms: _59  and  _60
REMARK   26  A    between atoms: _63  and  _65
REMARK   27  A    between atoms: _65  and  _66
REMARK   28  A    between atoms: _69  and  _71
REMARK   29  A    between atoms: _71  and  _72
REMARK   30  A    between atoms: _71  and  _74
REMARK   31  A    between atoms: _76  and  _78
REMARK   32  A    between atoms: _78  and  _79
REMARK   33  A    between atoms: _78  and  _81
REMARK   34  A    between atoms: _81  and  _82
REMARK   35  A    between atoms: _82  and  _84
REMARK   36  A    between atoms: _84  and  NI_307
REMARK   37  A    between atoms: _85  and  _87
REMARK   38  A    between atoms: _87  and  _88
REMARK   39  A    between atoms: _87  and  _90
REMARK   40  A    between atoms: _90  and  _91
REMARK   41  A    between atoms: _94  and  _96
REMARK   42  A    between atoms: _96  and  _97
REMARK   43  A    between atoms: _96  and  _99
REMARK   44  A    between atoms: _101  and  _103
REMARK   45  A    between atoms: _103  and  _104
REMARK   46  A    between atoms: _103  and  _106
REMARK   47  A    between atoms: _106  and  _107
REMARK   48  A    between atoms: _109  and  _111
REMARK   49  A    between atoms: _111  and  _112
REMARK   50  A    between atoms: _111  and  _114
REMARK   51  A    between atoms: _117  and  _119
REMARK   52  A    between atoms: _119  and  _120
REMARK   53  A    between atoms: _119  and  _122
REMARK   54  A    between atoms: _122  and  _123
REMARK   55  A    between atoms: _126  and  _128
REMARK   56  A    between atoms: _128  and  _129
REMARK   57  A    between atoms: _128  and  _131
REMARK   58  A    between atoms: _131  and  _132
REMARK   59  A    between atoms: _132  and  _133
REMARK   60  A    between atoms: _133  and  _134
REMARK   61  A    between atoms: _134  and  _135
REMARK   62  A    between atoms: _139  and  _141
REMARK   63  A    between atoms: _141  and  _142
REMARK   64  A    between atoms: _141  and  _144
REMARK   65  A    between atoms: _144  and  _145
REMARK   66  A    between atoms: _148  and  _150
REMARK   67  A    between atoms: _150  and  _151
REMARK   68  A    between atoms: _150  and  _153
REMARK   69  A    between atoms: _153  and  _154
REMARK   70  A    between atoms: _157  and  _159
REMARK   71  A    between atoms: _159  and  _160
REMARK   72  A    between atoms: _163  and  _165
REMARK   73  A    between atoms: _165  and  _166
REMARK   74  A    between atoms: _165  and  _168
REMARK   75  A    between atoms: _168  and  _169
REMARK   76  A    between atoms: _172  and  _174
REMARK   77  A    between atoms: _174  and  _175
REMARK   78  A    between atoms: _174  and  _177
REMARK   79  A    between atoms: _177  and  _178
REMARK   80  A    between atoms: _183  and  _184
REMARK   81  A    between atoms: _186  and  _188
REMARK   82  A    between atoms: _188  and  _189
REMARK   83  A    between atoms: _188  and  _191
REMARK   84  A    between atoms: _191  and  _192
REMARK   85  A    between atoms: _198  and  _200
REMARK   86  A    between atoms: _200  and  _201
REMARK   87  A    between atoms: _200  and  _203
REMARK   88  A    between atoms: _203  and  _204
REMARK   89  A    between atoms: _204  and  _205
REMARK   90  A    between atoms: _207  and  _209
REMARK   91  A    between atoms: _209  and  _210
REMARK   92  A    between atoms: _209  and  _212
REMARK   93  A    between atoms: _215  and  _217
REMARK   94  A    between atoms: _217  and  _218
REMARK   95  A    between atoms: _220  and  _222
REMARK   96  A    between atoms: _222  and  _223
REMARK   97  A    between atoms: _222  and  _225
REMARK   98  A    between atoms: _225  and  _226
REMARK   99  A    between atoms: _226  and  _227
REMARK  100  A    between atoms: _232  and  _234
REMARK  101  A    between atoms: _234  and  _235
REMARK  102  A    between atoms: _237  and  _239
REMARK  103  A    between atoms: _239  and  _240
REMARK  104  A    between atoms: _239  and  _242
REMARK  105  A    between atoms: _242  and  _243
REMARK  106  A    between atoms: _249  and  _251
REMARK  107  A    between atoms: _251  and  _252
REMARK  108  A    between atoms: _251  and  _254
REMARK  109  A    between atoms: _254  and  _255
REMARK  110  A    between atoms: _260  and  _261
REMARK  111  A    between atoms: _263  and  _265
REMARK  112  A    between atoms: _265  and  _266
REMARK  113  A    between atoms: _265  and  _268
REMARK  114  A    between atoms: _271  and  _273
REMARK  115  A    between atoms: _273  and  _274
REMARK  116  A    between atoms: _277  and  _279
REMARK  117  A    between atoms: _279  and  _280
REMARK  118  A    between atoms: _279  and  _282
REMARK  119  A    between atoms: _282  and  _283
REMARK  120  A    between atoms: _288  and  _289
REMARK  121  A    between atoms: _291  and  _293
REMARK  122  A    between atoms: _293  and  _294
REMARK  123  A    between atoms: _293  and  _296
REMARK  124  A    between atoms: _296  and  _297
REMARK                            x       y       z     vdW  Elec       q    Type
REMARK                         _______ _______ _______ _____ _____    ______ ____
ROOT
ATOM      1  CA  LEU A   5       2.870 -31.769 -28.219  0.00  0.00    +0.000 C 
ENDROOT
BRANCH   1   4
ATOM      2  C   UNK A   1       4.761 -33.193 -27.613  0.00  0.00    +0.000 C 
ATOM      3  O   UNK A   1       5.543 -32.263 -27.760  0.00  0.00    +0.000 OA
ATOM      4  N   LEU A   5       3.451 -33.032 -27.777  0.00  0.00    +0.000 N 
ATOM      5  H   LEU A   5       2.819 -33.835 -27.583  0.00  0.00    +0.000 HD
BRANCH   2   6
ATOM      6  C   UNK A   1       5.237 -34.587 -27.200  0.00  0.00    +0.000 C 
BRANCH   6   7
ATOM      7  N   UNK A   1       4.250 -35.177 -26.266  0.00  0.00    +0.000 N 
ATOM      8  C   CYS A   3       4.061 -34.656 -25.060  0.00  0.00    +0.000 C 
ATOM      9  O   CYS A   3       4.560 -33.585 -24.713  0.00  0.00    +0.000 OA
ATOM     10  H   UNK A   1       3.699 -36.009 -26.559  0.00  0.00    +0.000 HD
BRANCH   8  11
ATOM     11  CA  CYS A   3       3.095 -35.393 -24.133  0.00  0.00    +0.000 C 
BRANCH  11  12
ATOM     12  N   CYS A   3       1.939 -35.886 -24.880  0.00  0.00    +0.000 N 
ATOM     13  H   CYS A   3       1.844 -36.906 -25.058  0.00  0.00    +0.000 HD
ATOM     14  C   ALA A   2       1.006 -35.056 -25.337  0.00  0.00    +0.000 C 
ATOM     15  O   ALA A   2       1.069 -33.845 -25.199  0.00  0.00    +0.000 OA
BRANCH  14  16
ATOM     16  CA  ALA A   2      -0.152 -35.689 -26.109  0.00  0.00    +0.000 C 
ATOM     17  CB  ALA A   2      -1.209 -36.252 -25.144  0.00  0.00    +0.000 C 
BRANCH  16  18
ATOM     18  N   ALA A   2       0.288 -36.742 -27.013  0.00  0.00    +0.000 N 
ATOM     19  H   ALA A   2      -0.121 -37.693 -26.912  0.00  0.00    +0.000 HD
ATOM     20  C   UNK A   1       1.201 -36.529 -27.971  0.00  0.00    +0.000 C 
ATOM     21  O   UNK A   1       1.767 -35.443 -28.146  0.00  0.00    +0.000 OA
BRANCH  20  22
ATOM     22  C   UNK A   1       1.559 -37.736 -28.857  0.00  0.00    +0.000 C 
BRANCH  22  23
ATOM     23  C   UNK A   1       0.393 -37.978 -29.848  0.00  0.00    +0.000 C 
ATOM     24  C   UNK A   1       0.313 -36.804 -30.803  0.00  0.00    +0.000 C 
BRANCH  23  25
ATOM     25  O   UNK A   1       0.663 -39.183 -30.575  0.00  0.00    +0.000 OA
ATOM     26  H   UNK A   1       1.515 -39.085 -31.070  0.00  0.00    +0.000 HD
ENDBRANCH  23  25
ENDBRANCH  22  23
BRANCH  22  27
ATOM     27  N   UNK A   1       1.887 -38.925 -28.053  0.00  0.00    +0.000 NA
ATOM     28  H   UNK A   1       1.370 -39.814 -28.206  0.00  0.00    +0.000 HD
ENDBRANCH  22  27
ENDBRANCH  20  22
ENDBRANCH  16  18
ENDBRANCH  14  16
ENDBRANCH  11  12
BRANCH  11  29
ATOM     29  CB  CYS A   3       3.791 -36.541 -23.451  0.00  0.00    +0.000 C 
ATOM     30  SG  CYS A   3       2.787 -37.231 -22.128  0.00  0.00    +0.000 S 
ENDBRANCH  11  29
ENDBRANCH   8  11
ENDBRANCH   6   7
BRANCH   6  31
ATOM     31  C   UNK A   1       5.338 -35.518 -28.433  0.00  0.00    +0.000 C 
BRANCH  31  32
ATOM     32  C   UNK A   1       6.523 -35.232 -29.311  0.00  0.00    +0.000 C 
ATOM     33  O   UNK A   1       6.504 -35.719 -30.471  0.00  0.00    +0.000 OA
BRANCH  32  34
ATOM     34  O   UNK A   1       7.493 -34.581 -28.862  0.00  0.00    +0.000 OA
BRANCH  34  35
ATOM     35 NI   UNK A   1       9.515 -34.632 -29.414  0.00  0.00    +0.000 Ni
ATOM     36  O   UNK A   1       8.900 -35.950 -30.990  0.00  0.00    +0.000 OA
ATOM     37  O   UNK A   1       9.080 -33.093 -31.046  0.00  0.00    +0.000 OA
BRANCH  35  41
ATOM     38  C   UNK A   1      11.007 -31.475 -26.926  0.00  0.00    +0.000 A 
ATOM     39  N   UNK A   1       9.658 -31.162 -26.962  0.00  0.00    +0.000 NA
ATOM     40  C   UNK A   1       9.012 -32.113 -27.612  0.00  0.00    +0.000 A 
ATOM     41  N   UNK A   1       9.881 -33.035 -27.992  0.00  0.00    +0.000 N 
ATOM     42  C   UNK A   1      11.139 -32.657 -27.584  0.00  0.00    +0.000 A 
BRANCH  38  43
ATOM     43  C   UNK A   1      12.035 -30.578 -26.299  0.00  0.00    +0.000 C 
BRANCH  43  44
ATOM     44  C   UNK A   1      11.936 -30.478 -24.783  0.00  0.00    +0.000 C 
BRANCH  44  45
ATOM     45  N   UNK A   1      13.121 -29.778 -24.241  0.00  0.00    +0.000 NA
ATOM     46  H   UNK A   1      13.902 -29.501 -24.870  0.00  0.00    +0.000 HD
ENDBRANCH  44  45
BRANCH  44  47
ATOM     47  C   UNK A   1      11.779 -31.871 -24.135  0.00  0.00    +0.000 C 
ATOM     48  O   UNK A   1      10.679 -32.238 -23.708  0.00  0.00    +0.000 OA
ENDBRANCH  44  47
ENDBRANCH  43  44
ENDBRANCH  38  43
ENDBRANCH  35  41
ENDBRANCH  34  35
ENDBRANCH  32  34
ENDBRANCH  31  32
ENDBRANCH   6  31
ENDBRANCH   2   6
ENDBRANCH   1   4
BRANCH   1  49
ATOM     49  C   LEU A   5       2.516 -30.793 -27.091  0.00  0.00    +0.000 C 
ATOM     50  N   CYS A   6       2.844 -31.143 -25.838  0.00  0.00    +0.000 N 
ATOM     51  H   CYS A   6       3.492 -31.941 -25.678  0.00  0.00    +0.000 HD
ATOM     52  O   LEU A   5       1.957 -29.730 -27.371  0.00  0.00    +0.000 OA
BRANCH  50  53
ATOM     53  CA  CYS A   6       2.294 -30.406 -24.685  0.00  0.00    +0.000 C 
BRANCH  53  54
ATOM     54  C   CYS A   6       2.647 -28.923 -24.577  0.00  0.00    +0.000 C 
ATOM     55  O   CYS A   6       2.008 -28.201 -23.817  0.00  0.00    +0.000 OA
ATOM     56  N   SER A   7       3.644 -28.452 -25.330  0.00  0.00    +0.000 N 
ATOM     57  H   SER A   7       4.275 -29.091 -25.854  0.00  0.00    +0.000 HD
BRANCH  56  58
ATOM     58  CA  SER A   7       3.812 -27.004 -25.387  0.00  0.00    +0.000 C 
BRANCH  58  59
ATOM     59  C   SER A   7       2.544 -26.253 -25.758  0.00  0.00    +0.000 C 
ATOM     60  O   SER A   7       2.406 -25.109 -25.345  0.00  0.00    +0.000 OA
ATOM     61  N   VAL A   8       1.627 -26.901 -26.497  0.00  0.00    +0.000 N 
ATOM     62  H   VAL A   8       1.814 -27.876 -26.808  0.00  0.00    +0.000 HD
BRANCH  61  63
ATOM     63  CA  VAL A   8       0.375 -26.255 -26.868  0.00  0.00    +0.000 C 
BRANCH  63  64
ATOM     64  C   VAL A   8      -0.662 -26.262 -25.739  0.00  0.00    +0.000 C 
ATOM     65  N   THR A   9      -0.284 -26.817 -24.586  0.00  0.00    +0.000 N 
ATOM     66  H   THR A   9       0.678 -27.204 -24.508  0.00  0.00    +0.000 HD
ATOM     67  O   VAL A   8      -1.786 -25.747 -25.916  0.00  0.00    +0.000 OA
BRANCH  65  68
ATOM     68  CA  THR A   9      -1.174 -26.901 -23.425  0.00  0.00    +0.000 C 
BRANCH  68  69
ATOM     69  C   THR A   9      -0.690 -26.014 -22.253  0.00  0.00    +0.000 C 
ATOM     70  O   THR A   9      -1.197 -26.101 -21.121  0.00  0.00    +0.000 OA
ATOM     71  N   LYS A  10       0.305 -25.175 -22.518  0.00  0.00    +0.000 N 
ATOM     72  H   LYS A  10       0.703 -25.128 -23.478  0.00  0.00    +0.000 HD
BRANCH  71  73
ATOM     73  CA  LYS A  10       0.843 -24.314 -21.459  0.00  0.00    +0.000 C 
BRANCH  73  74
ATOM     74  C   LYS A  10       0.099 -22.991 -21.506  0.00  0.00    +0.000 C 
ATOM     75  O   LYS A  10      -0.749 -22.787 -22.370  0.00  0.00    +0.000 OA
ENDBRANCH  73  74
BRANCH  73  76
ATOM     76  CB  LYS A  10       2.345 -24.095 -21.667  0.00  0.00    +0.000 C 
BRANCH  76  77
ATOM     77  CG  LYS A  10       3.165 -25.404 -21.749  0.00  0.00    +0.000 C 
BRANCH  77  78
ATOM     78  CD  LYS A  10       2.851 -26.326 -20.523  0.00  0.00    +0.000 C 
BRANCH  78  79
ATOM     79  CE  LYS A  10       3.805 -27.580 -20.548  0.00  0.00    +0.000 C 
BRANCH  79  80
ATOM     80  NZ  LYS A  10       3.526 -28.473 -19.366  0.00  0.00    +0.000 N 
ATOM     81  HZ1 LYS A  10       3.686 -27.942 -18.486  0.00  0.00    +0.000 HD
ATOM     82  HZ2 LYS A  10       4.162 -29.295 -19.396  0.00  0.00    +0.000 HD
ATOM     83  HZ3 LYS A  10       2.538 -28.796 -19.403  0.00  0.00    +0.000 HD
ENDBRANCH  79  80
ENDBRANCH  78  79
ENDBRANCH  77  78
ENDBRANCH  76  77
ENDBRANCH  73  76
ENDBRANCH  71  73
ENDBRANCH  68  69
BRANCH  68  84
ATOM     84  CB  THR A   9      -1.322 -28.368 -22.965  0.00  0.00    +0.000 C 
ATOM     85  CG2 THR A   9      -1.709 -29.265 -24.164  0.00  0.00    +0.000 C 
BRANCH  84  86
ATOM     86  OG1 THR A   9      -0.077 -28.837 -22.403  0.00  0.00    +0.000 OA
ATOM     87  HG1 THR A   9       0.635 -28.780 -23.088  0.00  0.00    +0.000 HD
ENDBRANCH  84  86
ENDBRANCH  68  84
ENDBRANCH  65  68
ENDBRANCH  63  64
BRANCH  63  88
ATOM     88  CB  VAL A   8      -0.249 -26.836 -28.180  0.00  0.00    +0.000 C 
ATOM     89  CG2 VAL A   8      -0.874 -28.230 -27.925  0.00  0.00    +0.000 C 
ATOM     90  CG1 VAL A   8       0.768 -26.801 -29.337  0.00  0.00    +0.000 C 
ENDBRANCH  63  88
ENDBRANCH  61  63
ENDBRANCH  58  59
BRANCH  58  91
ATOM     91  CB  SER A   7       4.949 -26.590 -26.317  0.00  0.00    +0.000 C 
BRANCH  91  92
ATOM     92  OG  SER A   7       4.479 -26.552 -27.671  0.00  0.00    +0.000 OA
ATOM     93  H   SER A   7       4.153 -27.450 -27.931  0.00  0.00    +0.000 HD
ENDBRANCH  91  92
ENDBRANCH  58  91
ENDBRANCH  56  58
ENDBRANCH  53  54
BRANCH  53  94
ATOM     94  CB  CYS A   6       2.555 -31.130 -23.364  0.00  0.00    +0.000 C 
ATOM     95  SG  CYS A   6       4.192 -30.928 -22.750  0.00  0.00    +0.000 S 
ENDBRANCH  53  94
ENDBRANCH  50  53
ENDBRANCH   1  49
BRANCH   1  96
ATOM     96  CB  LEU A   5       1.600 -32.031 -29.071  0.00  0.00    +0.000 C 
BRANCH  96  97
ATOM     97  CG  LEU A   5       1.763 -32.894 -30.333  0.00  0.00    +0.000 C 
ATOM     98  CD2 LEU A   5       0.444 -32.912 -31.090  0.00  0.00    +0.000 C 
ATOM     99  CD1 LEU A   5       2.861 -32.337 -31.195  0.00  0.00    +0.000 C 
ENDBRANCH  96  97
ENDBRANCH   1  96
TORSDOF 45
REMARK  Name = ../refined-set-2016/4msa/4msa_pocket.pdb
REMARK  124 active torsions:
REMARK  status: ('A' for Active; 'I' for Inactive)
REMARK    1  A    between atoms: _1  and  _3
REMARK    2  A    between atoms: _3  and  _4
REMARK    3  A    between atoms: _3  and  _6
REMARK    4  A    between atoms: _6  and  _7
REMARK    5  A    between atoms: _12  and  _13
REMARK    6  A    between atoms: _15  and  _17
REMARK    7  A    between atoms: _17  and  _18
REMARK    8  A    between atoms: _17  and  _20
REMARK    9  A    between atoms: _20  and  _21
REMARK   10  A    between atoms: _26  and  _28
REMARK   11  A    between atoms: _28  and  _29
REMARK   12  A    between atoms: _28  and  _31
REMARK   13  A    between atoms: _31  and  _32
REMARK   14  A    between atoms: _36  and  NI_307
REMARK   15  A    between atoms: _37  and  _39
REMARK   16  A    between atoms: _39  and  _40
REMARK   17  A    between atoms: _39  and  _42
REMARK   18  A    between atoms: _45  and  _47
REMARK   19  A    between atoms: _47  and  _48
REMARK   20  A    between atoms: _47  and  _50
REMARK   21  A    between atoms: _50  and  _51
REMARK   22  A    between atoms: _54  and  _56
REMARK   23  A    between atoms: _56  and  _57
REMARK   24  A    between atoms: _56  and  _59
REMARK   25  A    between atoms: _59  and  _60
REMARK   26  A    between atoms: _63  and  _65
REMARK   27  A    between atoms: _65  and  _66
REMARK   28  A    between atoms: _69  and  _71
REMARK   29  A    between atoms: _71  and  _72
REMARK   30  A    between atoms: _71  and  _74
REMARK   31  A    between atoms: _76  and  _78
REMARK   32  A    between atoms: _78  and  _79
REMARK   33  A    between atoms: _78  and  _81
REMARK   34  A    between atoms: _81  and  _82
REMARK   35  A    between atoms: _82  and  _84
REMARK   36  A    between atoms: _84  and  NI_307
REMARK   37  A    between atoms: _85  and  _87
REMARK   38  A    between atoms: _87  and  _88
REMARK   39  A    between atoms: _87  and  _90
REMARK   40  A    between atoms: _90  and  _91
REMARK   41  A    between atoms: _94  and  _96
REMARK   42  A    between atoms: _96  and  _97
REMARK   43  A    between atoms: _96  and  _99
REMARK   44  A    between atoms: _101  and  _103
REMARK   45  A    between atoms: _103  and  _104
REMARK   46  A    between atoms: _103  and  _106
REMARK   47  A    between atoms: _106  and  _107
REMARK   48  A    between atoms: _109  and  _111
REMARK   49  A    between atoms: _111  and  _112
REMARK   50  A    between atoms: _111  and  _114
REMARK   51  A    between atoms: _117  and  _119
REMARK   52  A    between atoms: _119  and  _120
REMARK   53  A    between atoms: _119  and  _122
REMARK   54  A    between atoms: _122  and  _123
REMARK   55  A    between atoms: _126  and  _128
REMARK   56  A    between atoms: _128  and  _129
REMARK   57  A    between atoms: _128  and  _131
REMARK   58  A    between atoms: _131  and  _132
REMARK   59  A    between atoms: _132  and  _133
REMARK   60  A    between atoms: _133  and  _134
REMARK   61  A    between atoms: _134  and  _135
REMARK   62  A    between atoms: _139  and  _141
REMARK   63  A    between atoms: _141  and  _142
REMARK   64  A    between atoms: _141  and  _144
REMARK   65  A    between atoms: _144  and  _145
REMARK   66  A    between atoms: _148  and  _150
REMARK   67  A    between atoms: _150  and  _151
REMARK   68  A    between atoms: _150  and  _153
REMARK   69  A    between atoms: _153  and  _154
REMARK   70  A    between atoms: _157  and  _159
REMARK   71  A    between atoms: _159  and  _160
REMARK   72  A    between atoms: _163  and  _165
REMARK   73  A    between atoms: _165  and  _166
REMARK   74  A    between atoms: _165  and  _168
REMARK   75  A    between atoms: _168  and  _169
REMARK   76  A    between atoms: _172  and  _174
REMARK   77  A    between atoms: _174  and  _175
REMARK   78  A    between atoms: _174  and  _177
REMARK   79  A    between atoms: _177  and  _178
REMARK   80  A    between atoms: _183  and  _184
REMARK   81  A    between atoms: _186  and  _188
REMARK   82  A    between atoms: _188  and  _189
REMARK   83  A    between atoms: _188  and  _191
REMARK   84  A    between atoms: _191  and  _192
REMARK   85  A    between atoms: _198  and  _200
REMARK   86  A    between atoms: _200  and  _201
REMARK   87  A    between atoms: _200  and  _203
REMARK   88  A    between atoms: _203  and  _204
REMARK   89  A    between atoms: _204  and  _205
REMARK   90  A    between atoms: _207  and  _209
REMARK   91  A    between atoms: _209  and  _210
REMARK   92  A    between atoms: _209  and  _212
REMARK   93  A    between atoms: _215  and  _217
REMARK   94  A    between atoms: _217  and  _218
REMARK   95  A    between atoms: _220  and  _222
REMARK   96  A    between atoms: _222  and  _223
REMARK   97  A    between atoms: _222  and  _225
REMARK   98  A    between atoms: _225  and  _226
REMARK   99  A    between atoms: _226  and  _227
REMARK  100  A    between atoms: _232  and  _234
REMARK  101  A    between atoms: _234  and  _235
REMARK  102  A    between atoms: _237  and  _239
REMARK  103  A    between atoms: _239  and  _240
REMARK  104  A    between atoms: _239  and  _242
REMARK  105  A    between atoms: _242  and  _243
REMARK  106  A    between atoms: _249  and  _251
REMARK  107  A    between atoms: _251  and  _252
REMARK  108  A    between atoms: _251  and  _254
REMARK  109  A    between atoms: _254  and  _255
REMARK  110  A    between atoms: _260  and  _261
REMARK  111  A    between atoms: _263  and  _265
REMARK  112  A    between atoms: _265  and  _266
REMARK  113  A    between atoms: _265  and  _268
REMARK  114  A    between atoms: _271  and  _273
REMARK  115  A    between atoms: _273  and  _274
REMARK  116  A    between atoms: _277  and  _279
REMARK  117  A    between atoms: _279  and  _280
REMARK  118  A    between atoms: _279  and  _282
REMARK  119  A    between atoms: _282  and  _283
REMARK  120  A    between atoms: _288  and  _289
REMARK  121  A    between atoms: _291  and  _293
REMARK  122  A    between atoms: _293  and  _294
REMARK  123  A    between atoms: _293  and  _296
REMARK  124  A    between atoms: _296  and  _297
REMARK                            x       y       z     vdW  Elec       q    Type
REMARK                         _______ _______ _______ _____ _____    ______ ____
ROOT
ATOM      1  CA  VAL A   1       7.618 -34.138 -22.469  0.00  0.00    +0.133 C 
ENDROOT
BRANCH   1   2
ATOM      2  CB  VAL A   1       8.164 -34.755 -23.744  0.00  0.00    +0.023 C 
ATOM      3  CG2 VAL A   1       7.303 -35.969 -24.148  0.00  0.00    +0.002 C 
ATOM      4  CG1 VAL A   1       8.156 -33.708 -24.885  0.00  0.00    +0.002 C 
ENDBRANCH   1   2
BRANCH   1   5
ATOM      5  N   VAL A   1       8.434 -33.022 -22.050  0.00  0.00    -0.239 NA
ATOM      6  H   VAL A   1       9.366 -32.868 -22.485  0.00  0.00    +0.142 HD
ENDBRANCH   1   5
BRANCH   1   7
ATOM      7  C   VAL A   1       7.519 -35.155 -21.324  0.00  0.00    +0.224 C 
ATOM      8  O   VAL A   1       6.445 -35.674 -21.044  0.00  0.00    -0.287 OA
ENDBRANCH   1   7
TORSDOF 3
REMARK  Name = ../refined-set-2016/4msa/4msa_pocket.pdb
REMARK  124 active torsions:
REMARK  status: ('A' for Active; 'I' for Inactive)
REMARK    1  A    between atoms: _1  and  _3
REMARK    2  A    between atoms: _3  and  _4
REMARK    3  A    between atoms: _3  and  _6
REMARK    4  A    between atoms: _6  and  _7
REMARK    5  A    between atoms: _12  and  _13
REMARK    6  A    between atoms: _15  and  _17
REMARK    7  A    between atoms: _17  and  _18
REMARK    8  A    between atoms: _17  and  _20
REMARK    9  A    between atoms: _20  and  _21
REMARK   10  A    between atoms: _26  and  _28
REMARK   11  A    between atoms: _28  and  _29
REMARK   12  A    between atoms: _28  and  _31
REMARK   13  A    between atoms: _31  and  _32
REMARK   14  A    between atoms: _36  and  NI_307
REMARK   15  A    between atoms: _37  and  _39
REMARK   16  A    between atoms: _39  and  _40
REMARK   17  A    between atoms: _39  and  _42
REMARK   18  A    between atoms: _45  and  _47
REMARK   19  A    between atoms: _47  and  _48
REMARK   20  A    between atoms: _47  and  _50
REMARK   21  A    between atoms: _50  and  _51
REMARK   22  A    between atoms: _54  and  _56
REMARK   23  A    between atoms: _56  and  _57
REMARK   24  A    between atoms: _56  and  _59
REMARK   25  A    between atoms: _59  and  _60
REMARK   26  A    between atoms: _63  and  _65
REMARK   27  A    between atoms: _65  and  _66
REMARK   28  A    between atoms: _69  and  _71
REMARK   29  A    between atoms: _71  and  _72
REMARK   30  A    between atoms: _71  and  _74
REMARK   31  A    between atoms: _76  and  _78
REMARK   32  A    between atoms: _78  and  _79
REMARK   33  A    between atoms: _78  and  _81
REMARK   34  A    between atoms: _81  and  _82
REMARK   35  A    between atoms: _82  and  _84
REMARK   36  A    between atoms: _84  and  NI_307
REMARK   37  A    between atoms: _85  and  _87
REMARK   38  A    between atoms: _87  and  _88
REMARK   39  A    between atoms: _87  and  _90
REMARK   40  A    between atoms: _90  and  _91
REMARK   41  A    between atoms: _94  and  _96
REMARK   42  A    between atoms: _96  and  _97
REMARK   43  A    between atoms: _96  and  _99
REMARK   44  A    between atoms: _101  and  _103
REMARK   45  A    between atoms: _103  and  _104
REMARK   46  A    between atoms: _103  and  _106
REMARK   47  A    between atoms: _106  and  _107
REMARK   48  A    between atoms: _109  and  _111
REMARK   49  A    between atoms: _111  and  _112
REMARK   50  A    between atoms: _111  and  _114
REMARK   51  A    between atoms: _117  and  _119
REMARK   52  A    between atoms: _119  and  _120
REMARK   53  A    between atoms: _119  and  _122
REMARK   54  A    between atoms: _122  and  _123
REMARK   55  A    between atoms: _126  and  _128
REMARK   56  A    between atoms: _128  and  _129
REMARK   57  A    between atoms: _128  and  _131
REMARK   58  A    between atoms: _131  and  _132
REMARK   59  A    between atoms: _132  and  _133
REMARK   60  A    between atoms: _133  and  _134
REMARK   61  A    between atoms: _134  and  _135
REMARK   62  A    between atoms: _139  and  _141
REMARK   63  A    between atoms: _141  and  _142
REMARK   64  A    between atoms: _141  and  _144
REMARK   65  A    between atoms: _144  and  _145
REMARK   66  A    between atoms: _148  and  _150
REMARK   67  A    between atoms: _150  and  _151
REMARK   68  A    between atoms: _150  and  _153
REMARK   69  A    between atoms: _153  and  _154
REMARK   70  A    between atoms: _157  and  _159
REMARK   71  A    between atoms: _159  and  _160
REMARK   72  A    between atoms: _163  and  _165
REMARK   73  A    between atoms: _165  and  _166
REMARK   74  A    between atoms: _165  and  _168
REMARK   75  A    between atoms: _168  and  _169
REMARK   76  A    between atoms: _172  and  _174
REMARK   77  A    between atoms: _174  and  _175
REMARK   78  A    between atoms: _174  and  _177
REMARK   79  A    between atoms: _177  and  _178
REMARK   80  A    between atoms: _183  and  _184
REMARK   81  A    between atoms: _186  and  _188
REMARK   82  A    between atoms: _188  and  _189
REMARK   83  A    between atoms: _188  and  _191
REMARK   84  A    between atoms: _191  and  _192
REMARK   85  A    between atoms: _198  and  _200
REMARK   86  A    between atoms: _200  and  _201
REMARK   87  A    between atoms: _200  and  _203
REMARK   88  A    between atoms: _203  and  _204
REMARK   89  A    between atoms: _204  and  _205
REMARK   90  A    between atoms: _207  and  _209
REMARK   91  A    between atoms: _209  and  _210
REMARK   92  A    between atoms: _209  and  _212
REMARK   93  A    between atoms: _215  and  _217
REMARK   94  A    between atoms: _217  and  _218
REMARK   95  A    between atoms: _220  and  _222
REMARK   96  A    between atoms: _222  and  _223
REMARK   97  A    between atoms: _222  and  _225
REMARK   98  A    between atoms: _225  and  _226
REMARK   99  A    between atoms: _226  and  _227
REMARK  100  A    between atoms: _232  and  _234
REMARK  101  A    between atoms: _234  and  _235
REMARK  102  A    between atoms: _237  and  _239
REMARK  103  A    between atoms: _239  and  _240
REMARK  104  A    between atoms: _239  and  _242
REMARK  105  A    between atoms: _242  and  _243
REMARK  106  A    between atoms: _249  and  _251
REMARK  107  A    between atoms: _251  and  _252
REMARK  108  A    between atoms: _251  and  _254
REMARK  109  A    between atoms: _254  and  _255
REMARK  110  A    between atoms: _260  and  _261
REMARK  111  A    between atoms: _263  and  _265
REMARK  112  A    between atoms: _265  and  _266
REMARK  113  A    between atoms: _265  and  _268
REMARK  114  A    between atoms: _271  and  _273
REMARK  115  A    between atoms: _273  and  _274
REMARK  116  A    between atoms: _277  and  _279
REMARK  117  A    between atoms: _279  and  _280
REMARK  118  A    between atoms: _279  and  _282
REMARK  119  A    between atoms: _282  and  _283
REMARK  120  A    between atoms: _288  and  _289
REMARK  121  A    between atoms: _291  and  _293
REMARK  122  A    between atoms: _293  and  _294
REMARK  123  A    between atoms: _293  and  _296
REMARK  124  A    between atoms: _296  and  _297
REMARK                            x       y       z     vdW  Elec       q    Type
REMARK                         _______ _______ _______ _____ _____    ______ ____
ROOT
ATOM      1  CA  LEU A   1       3.266 -37.878 -36.058  0.00  0.00    +0.133 C 
ENDROOT
BRANCH   1   2
ATOM      2  N   LEU A   1       4.629 -38.398 -35.808  0.00  0.00    -0.239 NA
ATOM      3  H   LEU A   1       5.446 -37.754 -35.809  0.00  0.00    +0.142 HD
ENDBRANCH   1   2
BRANCH   1   4
ATOM      4  C   LEU A   1       2.601 -38.534 -37.258  0.00  0.00    +0.224 C 
ATOM      5  O   LEU A   1       1.362 -38.569 -37.332  0.00  0.00    -0.287 OA
ENDBRANCH   1   4
BRANCH   1   6
ATOM      6  CB  LEU A   1       3.231 -36.365 -36.208  0.00  0.00    +0.025 C 
BRANCH   6   7
ATOM      7  CG  LEU A   1       3.383 -35.612 -34.883  0.00  0.00    +0.002 C 
ATOM      8  CD2 LEU A   1       2.116 -35.791 -34.014  0.00  0.00    +0.000 C 
ATOM      9  CD1 LEU A   1       3.709 -34.162 -35.185  0.00  0.00    +0.000 C 
ENDBRANCH   6   7
ENDBRANCH   1   6
TORSDOF 4
REMARK  Name = ../refined-set-2016/4msa/4msa_pocket.pdb
REMARK  124 active torsions:
REMARK  status: ('A' for Active; 'I' for Inactive)
REMARK    1  A    between atoms: _1  and  _3
REMARK    2  A    between atoms: _3  and  _4
REMARK    3  A    between atoms: _3  and  _6
REMARK    4  A    between atoms: _6  and  _7
REMARK    5  A    between atoms: _12  and  _13
REMARK    6  A    between atoms: _15  and  _17
REMARK    7  A    between atoms: _17  and  _18
REMARK    8  A    between atoms: _17  and  _20
REMARK    9  A    between atoms: _20  and  _21
REMARK   10  A    between atoms: _26  and  _28
REMARK   11  A    between atoms: _28  and  _29
REMARK   12  A    between atoms: _28  and  _31
REMARK   13  A    between atoms: _31  and  _32
REMARK   14  A    between atoms: _36  and  NI_307
REMARK   15  A    between atoms: _37  and  _39
REMARK   16  A    between atoms: _39  and  _40
REMARK   17  A    between atoms: _39  and  _42
REMARK   18  A    between atoms: _45  and  _47
REMARK   19  A    between atoms: _47  and  _48
REMARK   20  A    between atoms: _47  and  _50
REMARK   21  A    between atoms: _50  and  _51
REMARK   22  A    between atoms: _54  and  _56
REMARK   23  A    between atoms: _56  and  _57
REMARK   24  A    between atoms: _56  and  _59
REMARK   25  A    between atoms: _59  and  _60
REMARK   26  A    between atoms: _63  and  _65
REMARK   27  A    between atoms: _65  and  _66
REMARK   28  A    between atoms: _69  and  _71
REMARK   29  A    between atoms: _71  and  _72
REMARK   30  A    between atoms: _71  and  _74
REMARK   31  A    between atoms: _76  and  _78
REMARK   32  A    between atoms: _78  and  _79
REMARK   33  A    between atoms: _78  and  _81
REMARK   34  A    between atoms: _81  and  _82
REMARK   35  A    between atoms: _82  and  _84
REMARK   36  A    between atoms: _84  and  NI_307
REMARK   37  A    between atoms: _85  and  _87
REMARK   38  A    between atoms: _87  and  _88
REMARK   39  A    between atoms: _87  and  _90
REMARK   40  A    between atoms: _90  and  _91
REMARK   41  A    between atoms: _94  and  _96
REMARK   42  A    between atoms: _96  and  _97
REMARK   43  A    between atoms: _96  and  _99
REMARK   44  A    between atoms: _101  and  _103
REMARK   45  A    between atoms: _103  and  _104
REMARK   46  A    between atoms: _103  and  _106
REMARK   47  A    between atoms: _106  and  _107
REMARK   48  A    between atoms: _109  and  _111
REMARK   49  A    between atoms: _111  and  _112
REMARK   50  A    between atoms: _111  and  _114
REMARK   51  A    between atoms: _117  and  _119
REMARK   52  A    between atoms: _119  and  _120
REMARK   53  A    between atoms: _119  and  _122
REMARK   54  A    between atoms: _122  and  _123
REMARK   55  A    between atoms: _126  and  _128
REMARK   56  A    between atoms: _128  and  _129
REMARK   57  A    between atoms: _128  and  _131
REMARK   58  A    between atoms: _131  and  _132
REMARK   59  A    between atoms: _132  and  _133
REMARK   60  A    between atoms: _133  and  _134
REMARK   61  A    between atoms: _134  and  _135
REMARK   62  A    between atoms: _139  and  _141
REMARK   63  A    between atoms: _141  and  _142
REMARK   64  A    between atoms: _141  and  _144
REMARK   65  A    between atoms: _144  and  _145
REMARK   66  A    between atoms: _148  and  _150
REMARK   67  A    between atoms: _150  and  _151
REMARK   68  A    between atoms: _150  and  _153
REMARK   69  A    between atoms: _153  and  _154
REMARK   70  A    between atoms: _157  and  _159
REMARK   71  A    between atoms: _159  and  _160
REMARK   72  A    between atoms: _163  and  _165
REMARK   73  A    between atoms: _165  and  _166
REMARK   74  A    between atoms: _165  and  _168
REMARK   75  A    between atoms: _168  and  _169
REMARK   76  A    between atoms: _172  and  _174
REMARK   77  A    between atoms: _174  and  _175
REMARK   78  A    between atoms: _174  and  _177
REMARK   79  A    between atoms: _177  and  _178
REMARK   80  A    between atoms: _183  and  _184
REMARK   81  A    between atoms: _186  and  _188
REMARK   82  A    between atoms: _188  and  _189
REMARK   83  A    between atoms: _188  and  _191
REMARK   84  A    between atoms: _191  and  _192
REMARK   85  A    between atoms: _198  and  _200
REMARK   86  A    between atoms: _200  and  _201
REMARK   87  A    between atoms: _200  and  _203
REMARK   88  A    between atoms: _203  and  _204
REMARK   89  A    between atoms: _204  and  _205
REMARK   90  A    between atoms: _207  and  _209
REMARK   91  A    between atoms: _209  and  _210
REMARK   92  A    between atoms: _209  and  _212
REMARK   93  A    between atoms: _215  and  _217
REMARK   94  A    between atoms: _217  and  _218
REMARK   95  A    between atoms: _220  and  _222
REMARK   96  A    between atoms: _222  and  _223
REMARK   97  A    between atoms: _222  and  _225
REMARK   98  A    between atoms: _225  and  _226
REMARK   99  A    between atoms: _226  and  _227
REMARK  100  A    between atoms: _232  and  _234
REMARK  101  A    between atoms: _234  and  _235
REMARK  102  A    between atoms: _237  and  _239
REMARK  103  A    between atoms: _239  and  _240
REMARK  104  A    between atoms: _239  and  _242
REMARK  105  A    between atoms: _242  and  _243
REMARK  106  A    between atoms: _249  and  _251
REMARK  107  A    between atoms: _251  and  _252
REMARK  108  A    between atoms: _251  and  _254
REMARK  109  A    between atoms: _254  and  _255
REMARK  110  A    between atoms: _260  and  _261
REMARK  111  A    between atoms: _263  and  _265
REMARK  112  A    between atoms: _265  and  _266
REMARK  113  A    between atoms: _265  and  _268
REMARK  114  A    between atoms: _271  and  _273
REMARK  115  A    between atoms: _273  and  _274
REMARK  116  A    between atoms: _277  and  _279
REMARK  117  A    between atoms: _279  and  _280
REMARK  118  A    between atoms: _279  and  _282
REMARK  119  A    between atoms: _282  and  _283
REMARK  120  A    between atoms: _288  and  _289
REMARK  121  A    between atoms: _291  and  _293
REMARK  122  A    between atoms: _293  and  _294
REMARK  123  A    between atoms: _293  and  _296
REMARK  124  A    between atoms: _296  and  _297
REMARK                            x       y       z     vdW  Elec       q    Type
REMARK                         _______ _______ _______ _____ _____    ______ ____
ROOT
ATOM      1  CA  THR A   1       3.211 -21.646 -25.925  0.00  0.00    +0.160 C 
ENDROOT
BRANCH   1   2
ATOM      2  N   THR A   1       3.538 -21.088 -24.601  0.00  0.00    -0.237 NA
ATOM      3  H   THR A   1       2.761 -20.928 -23.929  0.00  0.00    +0.142 HD
ENDBRANCH   1   2
BRANCH   1   4
ATOM      4  CB  THR A   1       1.650 -21.760 -26.052  0.00  0.00    +0.134 C 
ATOM      5  CG2 THR A   1       1.208 -22.293 -27.405  0.00  0.00    +0.034 C 
BRANCH   4   6
ATOM      6  OG1 THR A   1       1.193 -22.662 -25.046  0.00  0.00    -0.383 OA
ATOM      7  HG1 THR A   1       1.614 -23.548 -25.182  0.00  0.00    +0.210 HD
ENDBRANCH   4   6
ENDBRANCH   1   4
BRANCH   1   8
ATOM      8  C   THR A   1       3.813 -20.808 -27.056  0.00  0.00    +0.227 C 
ATOM      9  O   THR A   1       4.414 -21.354 -28.001  0.00  0.00    -0.287 OA
ENDBRANCH   1   8
TORSDOF 4
REMARK  Name = ../refined-set-2016/4msa/4msa_pocket.pdb
REMARK  124 active torsions:
REMARK  status: ('A' for Active; 'I' for Inactive)
REMARK    1  A    between atoms: _1  and  _3
REMARK    2  A    between atoms: _3  and  _4
REMARK    3  A    between atoms: _3  and  _6
REMARK    4  A    between atoms: _6  and  _7
REMARK    5  A    between atoms: _12  and  _13
REMARK    6  A    between atoms: _15  and  _17
REMARK    7  A    between atoms: _17  and  _18
REMARK    8  A    between atoms: _17  and  _20
REMARK    9  A    between atoms: _20  and  _21
REMARK   10  A    between atoms: _26  and  _28
REMARK   11  A    between atoms: _28  and  _29
REMARK   12  A    between atoms: _28  and  _31
REMARK   13  A    between atoms: _31  and  _32
REMARK   14  A    between atoms: _36  and  NI_307
REMARK   15  A    between atoms: _37  and  _39
REMARK   16  A    between atoms: _39  and  _40
REMARK   17  A    between atoms: _39  and  _42
REMARK   18  A    between atoms: _45  and  _47
REMARK   19  A    between atoms: _47  and  _48
REMARK   20  A    between atoms: _47  and  _50
REMARK   21  A    between atoms: _50  and  _51
REMARK   22  A    between atoms: _54  and  _56
REMARK   23  A    between atoms: _56  and  _57
REMARK   24  A    between atoms: _56  and  _59
REMARK   25  A    between atoms: _59  and  _60
REMARK   26  A    between atoms: _63  and  _65
REMARK   27  A    between atoms: _65  and  _66
REMARK   28  A    between atoms: _69  and  _71
REMARK   29  A    between atoms: _71  and  _72
REMARK   30  A    between atoms: _71  and  _74
REMARK   31  A    between atoms: _76  and  _78
REMARK   32  A    between atoms: _78  and  _79
REMARK   33  A    between atoms: _78  and  _81
REMARK   34  A    between atoms: _81  and  _82
REMARK   35  A    between atoms: _82  and  _84
REMARK   36  A    between atoms: _84  and  NI_307
REMARK   37  A    between atoms: _85  and  _87
REMARK   38  A    between atoms: _87  and  _88
REMARK   39  A    between atoms: _87  and  _90
REMARK   40  A    between atoms: _90  and  _91
REMARK   41  A    between atoms: _94  and  _96
REMARK   42  A    between atoms: _96  and  _97
REMARK   43  A    between atoms: _96  and  _99
REMARK   44  A    between atoms: _101  and  _103
REMARK   45  A    between atoms: _103  and  _104
REMARK   46  A    between atoms: _103  and  _106
REMARK   47  A    between atoms: _106  and  _107
REMARK   48  A    between atoms: _109  and  _111
REMARK   49  A    between atoms: _111  and  _112
REMARK   50  A    between atoms: _111  and  _114
REMARK   51  A    between atoms: _117  and  _119
REMARK   52  A    between atoms: _119  and  _120
REMARK   53  A    between atoms: _119  and  _122
REMARK   54  A    between atoms: _122  and  _123
REMARK   55  A    between atoms: _126  and  _128
REMARK   56  A    between atoms: _128  and  _129
REMARK   57  A    between atoms: _128  and  _131
REMARK   58  A    between atoms: _131  and  _132
REMARK   59  A    between atoms: _132  and  _133
REMARK   60  A    between atoms: _133  and  _134
REMARK   61  A    between atoms: _134  and  _135
REMARK   62  A    between atoms: _139  and  _141
REMARK   63  A    between atoms: _141  and  _142
REMARK   64  A    between atoms: _141  and  _144
REMARK   65  A    between atoms: _144  and  _145
REMARK   66  A    between atoms: _148  and  _150
REMARK   67  A    between atoms: _150  and  _151
REMARK   68  A    between atoms: _150  and  _153
REMARK   69  A    between atoms: _153  and  _154
REMARK   70  A    between atoms: _157  and  _159
REMARK   71  A    between atoms: _159  and  _160
REMARK   72  A    between atoms: _163  and  _165
REMARK   73  A    between atoms: _165  and  _166
REMARK   74  A    between atoms: _165  and  _168
REMARK   75  A    between atoms: _168  and  _169
REMARK   76  A    between atoms: _172  and  _174
REMARK   77  A    between atoms: _174  and  _175
REMARK   78  A    between atoms: _174  and  _177
REMARK   79  A    between atoms: _177  and  _178
REMARK   80  A    between atoms: _183  and  _184
REMARK   81  A    between atoms: _186  and  _188
REMARK   82  A    between atoms: _188  and  _189
REMARK   83  A    between atoms: _188  and  _191
REMARK   84  A    between atoms: _191  and  _192
REMARK   85  A    between atoms: _198  and  _200
REMARK   86  A    between atoms: _200  and  _201
REMARK   87  A    between atoms: _200  and  _203
REMARK   88  A    between atoms: _203  and  _204
REMARK   89  A    between atoms: _204  and  _205
REMARK   90  A    between atoms: _207  and  _209
REMARK   91  A    between atoms: _209  and  _210
REMARK   92  A    between atoms: _209  and  _212
REMARK   93  A    between atoms: _215  and  _217
REMARK   94  A    between atoms: _217  and  _218
REMARK   95  A    between atoms: _220  and  _222
REMARK   96  A    between atoms: _222  and  _223
REMARK   97  A    between atoms: _222  and  _225
REMARK   98  A    between atoms: _225  and  _226
REMARK   99  A    between atoms: _226  and  _227
REMARK  100  A    between atoms: _232  and  _234
REMARK  101  A    between atoms: _234  and  _235
REMARK  102  A    between atoms: _237  and  _239
REMARK  103  A    between atoms: _239  and  _240
REMARK  104  A    between atoms: _239  and  _242
REMARK  105  A    between atoms: _242  and  _243
REMARK  106  A    between atoms: _249  and  _251
REMARK  107  A    between atoms: _251  and  _252
REMARK  108  A    between atoms: _251  and  _254
REMARK  109  A    between atoms: _254  and  _255
REMARK  110  A    between atoms: _260  and  _261
REMARK  111  A    between atoms: _263  and  _265
REMARK  112  A    between atoms: _265  and  _266
REMARK  113  A    between atoms: _265  and  _268
REMARK  114  A    between atoms: _271  and  _273
REMARK  115  A    between atoms: _273  and  _274
REMARK  116  A    between atoms: _277  and  _279
REMARK  117  A    between atoms: _279  and  _280
REMARK  118  A    between atoms: _279  and  _282
REMARK  119  A    between atoms: _282  and  _283
REMARK  120  A    between atoms: _288  and  _289
REMARK  121  A    between atoms: _291  and  _293
REMARK  122  A    between atoms: _293  and  _294
REMARK  123  A    between atoms: _293  and  _296
REMARK  124  A    between atoms: _296  and  _297
REMARK                            x       y       z     vdW  Elec       q    Type
REMARK                         _______ _______ _______ _____ _____    ______ ____
ROOT
ATOM      1  C   THR A   1       7.940 -22.375 -29.151  0.00  0.00    +0.241 C 
ATOM      2  N   ALA A   2       6.840 -21.834 -29.653  0.00  0.00    -0.298 N 
ATOM      3  H   ALA A   2       6.113 -21.459 -29.011  0.00  0.00    +0.150 HD
ATOM      4  O   THR A   1       8.780 -22.916 -29.855  0.00  0.00    -0.274 OA
ENDROOT
BRANCH   2   5
ATOM      5  CA  ALA A   2       6.636 -21.758 -31.108  0.00  0.00    +0.137 C 
ATOM      6  CB  ALA A   2       5.258 -21.087 -31.473  0.00  0.00    +0.030 C 
BRANCH   5   7
ATOM      7  C   ALA A   2       7.801 -21.053 -31.815  0.00  0.00    +0.227 C 
ATOM      8  O   ALA A   2       8.218 -21.491 -32.899  0.00  0.00    -0.286 OA
ENDBRANCH   5   7
ENDBRANCH   2   5
BRANCH   1   9
ATOM      9  CA  THR A   1       8.125 -22.304 -27.621  0.00  0.00    +0.172 C 
BRANCH   9  10
ATOM     10  N   THR A   1       7.712 -20.980 -27.139  0.00  0.00    -0.236 NA
ATOM     11  H   THR A   1       6.903 -20.905 -26.489  0.00  0.00    +0.142 HD
ENDBRANCH   9  10
BRANCH   9  12
ATOM     12  CB  THR A   1       7.342 -23.433 -26.922  0.00  0.00    +0.135 C 
ATOM     13  CG2 THR A   1       7.842 -24.757 -27.413  0.00  0.00    +0.034 C 
BRANCH  12  14
ATOM     14  OG1 THR A   1       7.582 -23.367 -25.502  0.00  0.00    -0.383 OA
ATOM     15  HG1 THR A   1       7.279 -22.489 -25.158  0.00  0.00    +0.210 HD
ENDBRANCH  12  14
ENDBRANCH   9  12
ENDBRANCH   1   9
TORSDOF 6
REMARK  Name = ../refined-set-2016/4msa/4msa_pocket.pdb
REMARK  124 active torsions:
REMARK  status: ('A' for Active; 'I' for Inactive)
REMARK    1  A    between atoms: _1  and  _3
REMARK    2  A    between atoms: _3  and  _4
REMARK    3  A    between atoms: _3  and  _6
REMARK    4  A    between atoms: _6  and  _7
REMARK    5  A    between atoms: _12  and  _13
REMARK    6  A    between atoms: _15  and  _17
REMARK    7  A    between atoms: _17  and  _18
REMARK    8  A    between atoms: _17  and  _20
REMARK    9  A    between atoms: _20  and  _21
REMARK   10  A    between atoms: _26  and  _28
REMARK   11  A    between atoms: _28  and  _29
REMARK   12  A    between atoms: _28  and  _31
REMARK   13  A    between atoms: _31  and  _32
REMARK   14  A    between atoms: _36  and  NI_307
REMARK   15  A    between atoms: _37  and  _39
REMARK   16  A    between atoms: _39  and  _40
REMARK   17  A    between atoms: _39  and  _42
REMARK   18  A    between atoms: _45  and  _47
REMARK   19  A    between atoms: _47  and  _48
REMARK   20  A    between atoms: _47  and  _50
REMARK   21  A    between atoms: _50  and  _51
REMARK   22  A    between atoms: _54  and  _56
REMARK   23  A    between atoms: _56  and  _57
REMARK   24  A    between atoms: _56  and  _59
REMARK   25  A    between atoms: _59  and  _60
REMARK   26  A    between atoms: _63  and  _65
REMARK   27  A    between atoms: _65  and  _66
REMARK   28  A    between atoms: _69  and  _71
REMARK   29  A    between atoms: _71  and  _72
REMARK   30  A    between atoms: _71  and  _74
REMARK   31  A    between atoms: _76  and  _78
REMARK   32  A    between atoms: _78  and  _79
REMARK   33  A    between atoms: _78  and  _81
REMARK   34  A    between atoms: _81  and  _82
REMARK   35  A    between atoms: _82  and  _84
REMARK   36  A    between atoms: _84  and  NI_307
REMARK   37  A    between atoms: _85  and  _87
REMARK   38  A    between atoms: _87  and  _88
REMARK   39  A    between atoms: _87  and  _90
REMARK   40  A    between atoms: _90  and  _91
REMARK   41  A    between atoms: _94  and  _96
REMARK   42  A    between atoms: _96  and  _97
REMARK   43  A    between atoms: _96  and  _99
REMARK   44  A    between atoms: _101  and  _103
REMARK   45  A    between atoms: _103  and  _104
REMARK   46  A    between atoms: _103  and  _106
REMARK   47  A    between atoms: _106  and  _107
REMARK   48  A    between atoms: _109  and  _111
REMARK   49  A    between atoms: _111  and  _112
REMARK   50  A    between atoms: _111  and  _114
REMARK   51  A    between atoms: _117  and  _119
REMARK   52  A    between atoms: _119  and  _120
REMARK   53  A    between atoms: _119  and  _122
REMARK   54  A    between atoms: _122  and  _123
REMARK   55  A    between atoms: _126  and  _128
REMARK   56  A    between atoms: _128  and  _129
REMARK   57  A    between atoms: _128  and  _131
REMARK   58  A    between atoms: _131  and  _132
REMARK   59  A    between atoms: _132  and  _133
REMARK   60  A    between atoms: _133  and  _134
REMARK   61  A    between atoms: _134  and  _135
REMARK   62  A    between atoms: _139  and  _141
REMARK   63  A    between atoms: _141  and  _142
REMARK   64  A    between atoms: _141  and  _144
REMARK   65  A    between atoms: _144  and  _145
REMARK   66  A    between atoms: _148  and  _150
REMARK   67  A    between atoms: _150  and  _151
REMARK   68  A    between atoms: _150  and  _153
REMARK   69  A    between atoms: _153  and  _154
REMARK   70  A    between atoms: _157  and  _159
REMARK   71  A    between atoms: _159  and  _160
REMARK   72  A    between atoms: _163  and  _165
REMARK   73  A    between atoms: _165  and  _166
REMARK   74  A    between atoms: _165  and  _168
REMARK   75  A    between atoms: _168  and  _169
REMARK   76  A    between atoms: _172  and  _174
REMARK   77  A    between atoms: _174  and  _175
REMARK   78  A    between atoms: _174  and  _177
REMARK   79  A    between atoms: _177  and  _178
REMARK   80  A    between atoms: _183  and  _184
REMARK   81  A    between atoms: _186  and  _188
REMARK   82  A    between atoms: _188  and  _189
REMARK   83  A    between atoms: _188  and  _191
REMARK   84  A    between atoms: _191  and  _192
REMARK   85  A    between atoms: _198  and  _200
REMARK   86  A    between atoms: _200  and  _201
REMARK   87  A    between atoms: _200  and  _203
REMARK   88  A    between atoms: _203  and  _204
REMARK   89  A    between atoms: _204  and  _205
REMARK   90  A    between atoms: _207  and  _209
REMARK   91  A    between atoms: _209  and  _210
REMARK   92  A    between atoms: _209  and  _212
REMARK   93  A    between atoms: _215  and  _217
REMARK   94  A    between atoms: _217  and  _218
REMARK   95  A    between atoms: _220  and  _222
REMARK   96  A    between atoms: _222  and  _223
REMARK   97  A    between atoms: _222  and  _225
REMARK   98  A    between atoms: _225  and  _226
REMARK   99  A    between atoms: _226  and  _227
REMARK  100  A    between atoms: _232  and  _234
REMARK  101  A    between atoms: _234  and  _235
REMARK  102  A    between atoms: _237  and  _239
REMARK  103  A    between atoms: _239  and  _240
REMARK  104  A    between atoms: _239  and  _242
REMARK  105  A    between atoms: _242  and  _243
REMARK  106  A    between atoms: _249  and  _251
REMARK  107  A    between atoms: _251  and  _252
REMARK  108  A    between atoms: _251  and  _254
REMARK  109  A    between atoms: _254  and  _255
REMARK  110  A    between atoms: _260  and  _261
REMARK  111  A    between atoms: _263  and  _265
REMARK  112  A    between atoms: _265  and  _266
REMARK  113  A    between atoms: _265  and  _268
REMARK  114  A    between atoms: _271  and  _273
REMARK  115  A    between atoms: _273  and  _274
REMARK  116  A    between atoms: _277  and  _279
REMARK  117  A    between atoms: _279  and  _280
REMARK  118  A    between atoms: _279  and  _282
REMARK  119  A    between atoms: _282  and  _283
REMARK  120  A    between atoms: _288  and  _289
REMARK  121  A    between atoms: _291  and  _293
REMARK  122  A    between atoms: _293  and  _294
REMARK  123  A    between atoms: _293  and  _296
REMARK  124  A    between atoms: _296  and  _297
REMARK                            x       y       z     vdW  Elec       q    Type
REMARK                         _______ _______ _______ _____ _____    ______ ____
ROOT
ATOM      1  CA  TYR A   2      10.094 -22.312 -36.145  0.00  0.00    +0.141 C 
ENDROOT
BRANCH   1   3
ATOM      2  C   ILE A   1      10.368 -24.167 -34.601  0.00  0.00    +0.238 C 
ATOM      3  N   TYR A   2       9.892 -22.942 -34.842  0.00  0.00    -0.298 N 
ATOM      4  H   TYR A   2       9.374 -22.433 -34.097  0.00  0.00    +0.150 HD
ATOM      5  O   ILE A   1      11.025 -24.805 -35.430  0.00  0.00    -0.274 OA
BRANCH   2   6
ATOM      6  CA  ILE A   1      10.078 -24.752 -33.209  0.00  0.00    +0.145 C 
BRANCH   6   7
ATOM      7  N   ILE A   1      10.500 -23.775 -32.191  0.00  0.00    -0.238 NA
ATOM      8  H   ILE A   1       9.804 -23.464 -31.484  0.00  0.00    +0.142 HD
ENDBRANCH   6   7
BRANCH   6   9
ATOM      9  CB  ILE A   1       8.523 -25.079 -33.075  0.00  0.00    +0.025 C 
ATOM     10  CG2 ILE A   1       7.991 -25.846 -34.243  0.00  0.00    +0.002 C 
BRANCH   9  11
ATOM     11  CG1 ILE A   1       8.242 -25.787 -31.733  0.00  0.00    +0.002 C 
ATOM     12  CD1 ILE A   1       6.726 -25.770 -31.279  0.00  0.00    +0.000 C 
ENDBRANCH   9  11
ENDBRANCH   6   9
ENDBRANCH   2   6
ENDBRANCH   1   3
BRANCH   1  13
ATOM     13  C   TYR A   2      11.552 -22.002 -36.465  0.00  0.00    +0.227 C 
ATOM     14  O   TYR A   2      11.932 -22.072 -37.618  0.00  0.00    -0.286 OA
ENDBRANCH   1  13
BRANCH   1  15
ATOM     15  CB  TYR A   2       9.189 -21.102 -36.332  0.00  0.00    +0.054 C 
BRANCH  15  16
ATOM     16  CG  TYR A   2       7.841 -21.499 -36.813  0.00  0.00    -0.020 A 
ATOM     17  CD2 TYR A   2       6.822 -21.808 -35.902  0.00  0.00    -0.001 A 
ATOM     18  CE2 TYR A   2       5.569 -22.177 -36.347  0.00  0.00    +0.036 A 
ATOM     19  CZ  TYR A   2       5.301 -22.225 -37.718  0.00  0.00    +0.134 A 
ATOM     20  CE1 TYR A   2       6.281 -21.933 -38.631  0.00  0.00    +0.036 A 
ATOM     21  CD1 TYR A   2       7.555 -21.573 -38.180  0.00  0.00    -0.001 A 
BRANCH  19  22
ATOM     22  OH  TYR A   2       4.027 -22.578 -38.129  0.00  0.00    -0.506 OA
ATOM     23  HH  TYR A   2       3.636 -21.839 -38.659  0.00  0.00    +0.292 HD
ENDBRANCH  19  22
ENDBRANCH  15  16
ENDBRANCH   1  15
TORSDOF 9
REMARK  Name = ../refined-set-2016/4msa/4msa_pocket.pdb
REMARK  124 active torsions:
REMARK  status: ('A' for Active; 'I' for Inactive)
REMARK    1  A    between atoms: _1  and  _3
REMARK    2  A    between atoms: _3  and  _4
REMARK    3  A    between atoms: _3  and  _6
REMARK    4  A    between atoms: _6  and  _7
REMARK    5  A    between atoms: _12  and  _13
REMARK    6  A    between atoms: _15  and  _17
REMARK    7  A    between atoms: _17  and  _18
REMARK    8  A    between atoms: _17  and  _20
REMARK    9  A    between atoms: _20  and  _21
REMARK   10  A    between atoms: _26  and  _28
REMARK   11  A    between atoms: _28  and  _29
REMARK   12  A    between atoms: _28  and  _31
REMARK   13  A    between atoms: _31  and  _32
REMARK   14  A    between atoms: _36  and  NI_307
REMARK   15  A    between atoms: _37  and  _39
REMARK   16  A    between atoms: _39  and  _40
REMARK   17  A    between atoms: _39  and  _42
REMARK   18  A    between atoms: _45  and  _47
REMARK   19  A    between atoms: _47  and  _48
REMARK   20  A    between atoms: _47  and  _50
REMARK   21  A    between atoms: _50  and  _51
REMARK   22  A    between atoms: _54  and  _56
REMARK   23  A    between atoms: _56  and  _57
REMARK   24  A    between atoms: _56  and  _59
REMARK   25  A    between atoms: _59  and  _60
REMARK   26  A    between atoms: _63  and  _65
REMARK   27  A    between atoms: _65  and  _66
REMARK   28  A    between atoms: _69  and  _71
REMARK   29  A    between atoms: _71  and  _72
REMARK   30  A    between atoms: _71  and  _74
REMARK   31  A    between atoms: _76  and  _78
REMARK   32  A    between atoms: _78  and  _79
REMARK   33  A    between atoms: _78  and  _81
REMARK   34  A    between atoms: _81  and  _82
REMARK   35  A    between atoms: _82  and  _84
REMARK   36  A    between atoms: _84  and  NI_307
REMARK   37  A    between atoms: _85  and  _87
REMARK   38  A    between atoms: _87  and  _88
REMARK   39  A    between atoms: _87  and  _90
REMARK   40  A    between atoms: _90  and  _91
REMARK   41  A    between atoms: _94  and  _96
REMARK   42  A    between atoms: _96  and  _97
REMARK   43  A    between atoms: _96  and  _99
REMARK   44  A    between atoms: _101  and  _103
REMARK   45  A    between atoms: _103  and  _104
REMARK   46  A    between atoms: _103  and  _106
REMARK   47  A    between atoms: _106  and  _107
REMARK   48  A    between atoms: _109  and  _111
REMARK   49  A    between atoms: _111  and  _112
REMARK   50  A    between atoms: _111  and  _114
REMARK   51  A    between atoms: _117  and  _119
REMARK   52  A    between atoms: _119  and  _120
REMARK   53  A    between atoms: _119  and  _122
REMARK   54  A    between atoms: _122  and  _123
REMARK   55  A    between atoms: _126  and  _128
REMARK   56  A    between atoms: _128  and  _129
REMARK   57  A    between atoms: _128  and  _131
REMARK   58  A    between atoms: _131  and  _132
REMARK   59  A    between atoms: _132  and  _133
REMARK   60  A    between atoms: _133  and  _134
REMARK   61  A    between atoms: _134  and  _135
REMARK   62  A    between atoms: _139  and  _141
REMARK   63  A    between atoms: _141  and  _142
REMARK   64  A    between atoms: _141  and  _144
REMARK   65  A    between atoms: _144  and  _145
REMARK   66  A    between atoms: _148  and  _150
REMARK   67  A    between atoms: _150  and  _151
REMARK   68  A    between atoms: _150  and  _153
REMARK   69  A    between atoms: _153  and  _154
REMARK   70  A    between atoms: _157  and  _159
REMARK   71  A    between atoms: _159  and  _160
REMARK   72  A    between atoms: _163  and  _165
REMARK   73  A    between atoms: _165  and  _166
REMARK   74  A    between atoms: _165  and  _168
REMARK   75  A    between atoms: _168  and  _169
REMARK   76  A    between atoms: _172  and  _174
REMARK   77  A    between atoms: _174  and  _175
REMARK   78  A    between atoms: _174  and  _177
REMARK   79  A    between atoms: _177  and  _178
REMARK   80  A    between atoms: _183  and  _184
REMARK   81  A    between atoms: _186  and  _188
REMARK   82  A    between atoms: _188  and  _189
REMARK   83  A    between atoms: _188  and  _191
REMARK   84  A    between atoms: _191  and  _192
REMARK   85  A    between atoms: _198  and  _200
REMARK   86  A    between atoms: _200  and  _201
REMARK   87  A    between atoms: _200  and  _203
REMARK   88  A    between atoms: _203  and  _204
REMARK   89  A    between atoms: _204  and  _205
REMARK   90  A    between atoms: _207  and  _209
REMARK   91  A    between atoms: _209  and  _210
REMARK   92  A    between atoms: _209  and  _212
REMARK   93  A    between atoms: _215  and  _217
REMARK   94  A    between atoms: _217  and  _218
REMARK   95  A    between atoms: _220  and  _222
REMARK   96  A    between atoms: _222  and  _223
REMARK   97  A    between atoms: _222  and  _225
REMARK   98  A    between atoms: _225  and  _226
REMARK   99  A    between atoms: _226  and  _227
REMARK  100  A    between atoms: _232  and  _234
REMARK  101  A    between atoms: _234  and  _235
REMARK  102  A    between atoms: _237  and  _239
REMARK  103  A    between atoms: _239  and  _240
REMARK  104  A    between atoms: _239  and  _242
REMARK  105  A    between atoms: _242  and  _243
REMARK  106  A    between atoms: _249  and  _251
REMARK  107  A    between atoms: _251  and  _252
REMARK  108  A    between atoms: _251  and  _254
REMARK  109  A    between atoms: _254  and  _255
REMARK  110  A    between atoms: _260  and  _261
REMARK  111  A    between atoms: _263  and  _265
REMARK  112  A    between atoms: _265  and  _266
REMARK  113  A    between atoms: _265  and  _268
REMARK  114  A    between atoms: _271  and  _273
REMARK  115  A    between atoms: _273  and  _274
REMARK  116  A    between atoms: _277  and  _279
REMARK  117  A    between atoms: _279  and  _280
REMARK  118  A    between atoms: _279  and  _282
REMARK  119  A    between atoms: _282  and  _283
REMARK  120  A    between atoms: _288  and  _289
REMARK  121  A    between atoms: _291  and  _293
REMARK  122  A    between atoms: _293  and  _294
REMARK  123  A    between atoms: _293  and  _296
REMARK  124  A    between atoms: _296  and  _297
REMARK                            x       y       z     vdW  Elec       q    Type
REMARK                         _______ _______ _______ _____ _____    ______ ____
ROOT
ATOM      1  CB  PHE A   1      10.448 -24.844 -39.246  0.00  0.00    +0.051 C 
ENDROOT
BRANCH   1   2
ATOM      2  CG  PHE A   1       9.551 -25.863 -38.557  0.00  0.00    -0.020 A 
ATOM      3  CD2 PHE A   1       8.301 -25.468 -38.069  0.00  0.00    -0.004 A 
ATOM      4  CE2 PHE A   1       7.459 -26.370 -37.454  0.00  0.00    -0.000 A 
ATOM      5  CZ  PHE A   1       7.862 -27.709 -37.333  0.00  0.00    -0.000 A 
ATOM      6  CE1 PHE A   1       9.094 -28.114 -37.805  0.00  0.00    -0.000 A 
ATOM      7  CD1 PHE A   1       9.931 -27.186 -38.436  0.00  0.00    -0.004 A 
ENDBRANCH   1   2
BRANCH   1   8
ATOM      8  CA  PHE A   1      11.934 -25.247 -39.336  0.00  0.00    +0.137 C 
BRANCH   8   9
ATOM      9  N   PHE A   1      12.591 -25.115 -38.051  0.00  0.00    -0.239 NA
ATOM     10  H   PHE A   1      12.029 -24.831 -37.223  0.00  0.00    +0.142 HD
ENDBRANCH   8   9
BRANCH   8  11
ATOM     11  C   PHE A   1      12.649 -24.367 -40.381  0.00  0.00    +0.224 C 
ATOM     12  O   PHE A   1      13.003 -24.837 -41.465  0.00  0.00    -0.287 OA
ENDBRANCH   8  11
ENDBRANCH   1   8
TORSDOF 4
REMARK  Name = ../refined-set-2016/4msa/4msa_pocket.pdb
REMARK  124 active torsions:
REMARK  status: ('A' for Active; 'I' for Inactive)
REMARK    1  A    between atoms: _1  and  _3
REMARK    2  A    between atoms: _3  and  _4
REMARK    3  A    between atoms: _3  and  _6
REMARK    4  A    between atoms: _6  and  _7
REMARK    5  A    between atoms: _12  and  _13
REMARK    6  A    between atoms: _15  and  _17
REMARK    7  A    between atoms: _17  and  _18
REMARK    8  A    between atoms: _17  and  _20
REMARK    9  A    between atoms: _20  and  _21
REMARK   10  A    between atoms: _26  and  _28
REMARK   11  A    between atoms: _28  and  _29
REMARK   12  A    between atoms: _28  and  _31
REMARK   13  A    between atoms: _31  and  _32
REMARK   14  A    between atoms: _36  and  NI_307
REMARK   15  A    between atoms: _37  and  _39
REMARK   16  A    between atoms: _39  and  _40
REMARK   17  A    between atoms: _39  and  _42
REMARK   18  A    between atoms: _45  and  _47
REMARK   19  A    between atoms: _47  and  _48
REMARK   20  A    between atoms: _47  and  _50
REMARK   21  A    between atoms: _50  and  _51
REMARK   22  A    between atoms: _54  and  _56
REMARK   23  A    between atoms: _56  and  _57
REMARK   24  A    between atoms: _56  and  _59
REMARK   25  A    between atoms: _59  and  _60
REMARK   26  A    between atoms: _63  and  _65
REMARK   27  A    between atoms: _65  and  _66
REMARK   28  A    between atoms: _69  and  _71
REMARK   29  A    between atoms: _71  and  _72
REMARK   30  A    between atoms: _71  and  _74
REMARK   31  A    between atoms: _76  and  _78
REMARK   32  A    between atoms: _78  and  _79
REMARK   33  A    between atoms: _78  and  _81
REMARK   34  A    between atoms: _81  and  _82
REMARK   35  A    between atoms: _82  and  _84
REMARK   36  A    between atoms: _84  and  NI_307
REMARK   37  A    between atoms: _85  and  _87
REMARK   38  A    between atoms: _87  and  _88
REMARK   39  A    between atoms: _87  and  _90
REMARK   40  A    between atoms: _90  and  _91
REMARK   41  A    between atoms: _94  and  _96
REMARK   42  A    between atoms: _96  and  _97
REMARK   43  A    between atoms: _96  and  _99
REMARK   44  A    between atoms: _101  and  _103
REMARK   45  A    between atoms: _103  and  _104
REMARK   46  A    between atoms: _103  and  _106
REMARK   47  A    between atoms: _106  and  _107
REMARK   48  A    between atoms: _109  and  _111
REMARK   49  A    between atoms: _111  and  _112
REMARK   50  A    between atoms: _111  and  _114
REMARK   51  A    between atoms: _117  and  _119
REMARK   52  A    between atoms: _119  and  _120
REMARK   53  A    between atoms: _119  and  _122
REMARK   54  A    between atoms: _122  and  _123
REMARK   55  A    between atoms: _126  and  _128
REMARK   56  A    between atoms: _128  and  _129
REMARK   57  A    between atoms: _128  and  _131
REMARK   58  A    between atoms: _131  and  _132
REMARK   59  A    between atoms: _132  and  _133
REMARK   60  A    between atoms: _133  and  _134
REMARK   61  A    between atoms: _134  and  _135
REMARK   62  A    between atoms: _139  and  _141
REMARK   63  A    between atoms: _141  and  _142
REMARK   64  A    between atoms: _141  and  _144
REMARK   65  A    between atoms: _144  and  _145
REMARK   66  A    between atoms: _148  and  _150
REMARK   67  A    between atoms: _150  and  _151
REMARK   68  A    between atoms: _150  and  _153
REMARK   69  A    between atoms: _153  and  _154
REMARK   70  A    between atoms: _157  and  _159
REMARK   71  A    between atoms: _159  and  _160
REMARK   72  A    between atoms: _163  and  _165
REMARK   73  A    between atoms: _165  and  _166
REMARK   74  A    between atoms: _165  and  _168
REMARK   75  A    between atoms: _168  and  _169
REMARK   76  A    between atoms: _172  and  _174
REMARK   77  A    between atoms: _174  and  _175
REMARK   78  A    between atoms: _174  and  _177
REMARK   79  A    between atoms: _177  and  _178
REMARK   80  A    between atoms: _183  and  _184
REMARK   81  A    between atoms: _186  and  _188
REMARK   82  A    between atoms: _188  and  _189
REMARK   83  A    between atoms: _188  and  _191
REMARK   84  A    between atoms: _191  and  _192
REMARK   85  A    between atoms: _198  and  _200
REMARK   86  A    between atoms: _200  and  _201
REMARK   87  A    between atoms: _200  and  _203
REMARK   88  A    between atoms: _203  and  _204
REMARK   89  A    between atoms: _204  and  _205
REMARK   90  A    between atoms: _207  and  _209
REMARK   91  A    between atoms: _209  and  _210
REMARK   92  A    between atoms: _209  and  _212
REMARK   93  A    between atoms: _215  and  _217
REMARK   94  A    between atoms: _217  and  _218
REMARK   95  A    between atoms: _220  and  _222
REMARK   96  A    between atoms: _222  and  _223
REMARK   97  A    between atoms: _222  and  _225
REMARK   98  A    between atoms: _225  and  _226
REMARK   99  A    between atoms: _226  and  _227
REMARK  100  A    between atoms: _232  and  _234
REMARK  101  A    between atoms: _234  and  _235
REMARK  102  A    between atoms: _237  and  _239
REMARK  103  A    between atoms: _239  and  _240
REMARK  104  A    between atoms: _239  and  _242
REMARK  105  A    between atoms: _242  and  _243
REMARK  106  A    between atoms: _249  and  _251
REMARK  107  A    between atoms: _251  and  _252
REMARK  108  A    between atoms: _251  and  _254
REMARK  109  A    between atoms: _254  and  _255
REMARK  110  A    between atoms: _260  and  _261
REMARK  111  A    between atoms: _263  and  _265
REMARK  112  A    between atoms: _265  and  _266
REMARK  113  A    between atoms: _265  and  _268
REMARK  114  A    between atoms: _271  and  _273
REMARK  115  A    between atoms: _273  and  _274
REMARK  116  A    between atoms: _277  and  _279
REMARK  117  A    between atoms: _279  and  _280
REMARK  118  A    between atoms: _279  and  _282
REMARK  119  A    between atoms: _282  and  _283
REMARK  120  A    between atoms: _288  and  _289
REMARK  121  A    between atoms: _291  and  _293
REMARK  122  A    between atoms: _293  and  _294
REMARK  123  A    between atoms: _293  and  _296
REMARK  124  A    between atoms: _296  and  _297
REMARK                            x       y       z     vdW  Elec       q    Type
REMARK                         _______ _______ _______ _____ _____    ______ ____
ROOT
ATOM      1  CA  MET A   1       6.081 -23.662 -42.773  0.00  0.00    +0.134 C 
ENDROOT
BRANCH   1   2
ATOM      2  N   MET A   1       5.765 -23.536 -44.183  0.00  0.00    -0.239 NA
ATOM      3  H   MET A   1       5.237 -24.298 -44.655  0.00  0.00    +0.142 HD
ENDBRANCH   1   2
BRANCH   1   4
ATOM      4  C   MET A   1       7.582 -23.544 -42.493  0.00  0.00    +0.224 C 
ATOM      5  O   MET A   1       7.973 -23.070 -41.426  0.00  0.00    -0.287 OA
ENDBRANCH   1   4
BRANCH   1   6
ATOM      6  CB  MET A   1       5.510 -24.968 -42.215  0.00  0.00    +0.037 C 
BRANCH   6   7
ATOM      7  CG  MET A   1       5.427 -24.998 -40.709  0.00  0.00    +0.059 C 
BRANCH   7   8
ATOM      8  SD  MET A   1       4.866 -26.566 -40.030  0.00  0.00    -0.139 S 
ATOM      9  CE  MET A   1       6.292 -27.574 -40.383  0.00  0.00    +0.069 C 
ENDBRANCH   7   8
ENDBRANCH   6   7
ENDBRANCH   1   6
TORSDOF 5
REMARK  Name = ../refined-set-2016/4msa/4msa_pocket.pdb
REMARK  124 active torsions:
REMARK  status: ('A' for Active; 'I' for Inactive)
REMARK    1  A    between atoms: _1  and  _3
REMARK    2  A    between atoms: _3  and  _4
REMARK    3  A    between atoms: _3  and  _6
REMARK    4  A    between atoms: _6  and  _7
REMARK    5  A    between atoms: _12  and  _13
REMARK    6  A    between atoms: _15  and  _17
REMARK    7  A    between atoms: _17  and  _18
REMARK    8  A    between atoms: _17  and  _20
REMARK    9  A    between atoms: _20  and  _21
REMARK   10  A    between atoms: _26  and  _28
REMARK   11  A    between atoms: _28  and  _29
REMARK   12  A    between atoms: _28  and  _31
REMARK   13  A    between atoms: _31  and  _32
REMARK   14  A    between atoms: _36  and  NI_307
REMARK   15  A    between atoms: _37  and  _39
REMARK   16  A    between atoms: _39  and  _40
REMARK   17  A    between atoms: _39  and  _42
REMARK   18  A    between atoms: _45  and  _47
REMARK   19  A    between atoms: _47  and  _48
REMARK   20  A    between atoms: _47  and  _50
REMARK   21  A    between atoms: _50  and  _51
REMARK   22  A    between atoms: _54  and  _56
REMARK   23  A    between atoms: _56  and  _57
REMARK   24  A    between atoms: _56  and  _59
REMARK   25  A    between atoms: _59  and  _60
REMARK   26  A    between atoms: _63  and  _65
REMARK   27  A    between atoms: _65  and  _66
REMARK   28  A    between atoms: _69  and  _71
REMARK   29  A    between atoms: _71  and  _72
REMARK   30  A    between atoms: _71  and  _74
REMARK   31  A    between atoms: _76  and  _78
REMARK   32  A    between atoms: _78  and  _79
REMARK   33  A    between atoms: _78  and  _81
REMARK   34  A    between atoms: _81  and  _82
REMARK   35  A    between atoms: _82  and  _84
REMARK   36  A    between atoms: _84  and  NI_307
REMARK   37  A    between atoms: _85  and  _87
REMARK   38  A    between atoms: _87  and  _88
REMARK   39  A    between atoms: _87  and  _90
REMARK   40  A    between atoms: _90  and  _91
REMARK   41  A    between atoms: _94  and  _96
REMARK   42  A    between atoms: _96  and  _97
REMARK   43  A    between atoms: _96  and  _99
REMARK   44  A    between atoms: _101  and  _103
REMARK   45  A    between atoms: _103  and  _104
REMARK   46  A    between atoms: _103  and  _106
REMARK   47  A    between atoms: _106  and  _107
REMARK   48  A    between atoms: _109  and  _111
REMARK   49  A    between atoms: _111  and  _112
REMARK   50  A    between atoms: _111  and  _114
REMARK   51  A    between atoms: _117  and  _119
REMARK   52  A    between atoms: _119  and  _120
REMARK   53  A    between atoms: _119  and  _122
REMARK   54  A    between atoms: _122  and  _123
REMARK   55  A    between atoms: _126  and  _128
REMARK   56  A    between atoms: _128  and  _129
REMARK   57  A    between atoms: _128  and  _131
REMARK   58  A    between atoms: _131  and  _132
REMARK   59  A    between atoms: _132  and  _133
REMARK   60  A    between atoms: _133  and  _134
REMARK   61  A    between atoms: _134  and  _135
REMARK   62  A    between atoms: _139  and  _141
REMARK   63  A    between atoms: _141  and  _142
REMARK   64  A    between atoms: _141  and  _144
REMARK   65  A    between atoms: _144  and  _145
REMARK   66  A    between atoms: _148  and  _150
REMARK   67  A    between atoms: _150  and  _151
REMARK   68  A    between atoms: _150  and  _153
REMARK   69  A    between atoms: _153  and  _154
REMARK   70  A    between atoms: _157  and  _159
REMARK   71  A    between atoms: _159  and  _160
REMARK   72  A    between atoms: _163  and  _165
REMARK   73  A    between atoms: _165  and  _166
REMARK   74  A    between atoms: _165  and  _168
REMARK   75  A    between atoms: _168  and  _169
REMARK   76  A    between atoms: _172  and  _174
REMARK   77  A    between atoms: _174  and  _175
REMARK   78  A    between atoms: _174  and  _177
REMARK   79  A    between atoms: _177  and  _178
REMARK   80  A    between atoms: _183  and  _184
REMARK   81  A    between atoms: _186  and  _188
REMARK   82  A    between atoms: _188  and  _189
REMARK   83  A    between atoms: _188  and  _191
REMARK   84  A    between atoms: _191  and  _192
REMARK   85  A    between atoms: _198  and  _200
REMARK   86  A    between atoms: _200  and  _201
REMARK   87  A    between atoms: _200  and  _203
REMARK   88  A    between atoms: _203  and  _204
REMARK   89  A    between atoms: _204  and  _205
REMARK   90  A    between atoms: _207  and  _209
REMARK   91  A    between atoms: _209  and  _210
REMARK   92  A    between atoms: _209  and  _212
REMARK   93  A    between atoms: _215  and  _217
REMARK   94  A    between atoms: _217  and  _218
REMARK   95  A    between atoms: _220  and  _222
REMARK   96  A    between atoms: _222  and  _223
REMARK   97  A    between atoms: _222  and  _225
REMARK   98  A    between atoms: _225  and  _226
REMARK   99  A    between atoms: _226  and  _227
REMARK  100  A    between atoms: _232  and  _234
REMARK  101  A    between atoms: _234  and  _235
REMARK  102  A    between atoms: _237  and  _239
REMARK  103  A    between atoms: _239  and  _240
REMARK  104  A    between atoms: _239  and  _242
REMARK  105  A    between atoms: _242  and  _243
REMARK  106  A    between atoms: _249  and  _251
REMARK  107  A    between atoms: _251  and  _252
REMARK  108  A    between atoms: _251  and  _254
REMARK  109  A    between atoms: _254  and  _255
REMARK  110  A    between atoms: _260  and  _261
REMARK  111  A    between atoms: _263  and  _265
REMARK  112  A    between atoms: _265  and  _266
REMARK  113  A    between atoms: _265  and  _268
REMARK  114  A    between atoms: _271  and  _273
REMARK  115  A    between atoms: _273  and  _274
REMARK  116  A    between atoms: _277  and  _279
REMARK  117  A    between atoms: _279  and  _280
REMARK  118  A    between atoms: _279  and  _282
REMARK  119  A    between atoms: _282  and  _283
REMARK  120  A    between atoms: _288  and  _289
REMARK  121  A    between atoms: _291  and  _293
REMARK  122  A    between atoms: _293  and  _294
REMARK  123  A    between atoms: _293  and  _296
REMARK  124  A    between atoms: _296  and  _297
REMARK                            x       y       z     vdW  Elec       q    Type
REMARK                         _______ _______ _______ _____ _____    ______ ____
ROOT
ATOM      1  CA  VAL A   1       2.604 -18.787 -39.438  0.00  0.00    +0.133 C 
ENDROOT
BRANCH   1   2
ATOM      2  CB  VAL A   1       3.755 -18.299 -38.539  0.00  0.00    +0.023 C 
ATOM      3  CG2 VAL A   1       3.675 -18.938 -37.112  0.00  0.00    +0.002 C 
ATOM      4  CG1 VAL A   1       5.106 -18.604 -39.184  0.00  0.00    +0.002 C 
ENDBRANCH   1   2
BRANCH   1   5
ATOM      5  N   VAL A   1       2.479 -18.004 -40.686  0.00  0.00    -0.239 NA
ATOM      6  H   VAL A   1       3.071 -17.160 -40.821  0.00  0.00    +0.142 HD
ENDBRANCH   1   5
BRANCH   1   7
ATOM      7  C   VAL A   1       1.262 -18.907 -38.650  0.00  0.00    +0.224 C 
ATOM      8  O   VAL A   1       0.890 -20.005 -38.228  0.00  0.00    -0.287 OA
ENDBRANCH   1   7
TORSDOF 3
REMARK  Name = ../refined-set-2016/4msa/4msa_pocket.pdb
REMARK  124 active torsions:
REMARK  status: ('A' for Active; 'I' for Inactive)
REMARK    1  A    between atoms: _1  and  _3
REMARK    2  A    between atoms: _3  and  _4
REMARK    3  A    between atoms: _3  and  _6
REMARK    4  A    between atoms: _6  and  _7
REMARK    5  A    between atoms: _12  and  _13
REMARK    6  A    between atoms: _15  and  _17
REMARK    7  A    between atoms: _17  and  _18
REMARK    8  A    between atoms: _17  and  _20
REMARK    9  A    between atoms: _20  and  _21
REMARK   10  A    between atoms: _26  and  _28
REMARK   11  A    between atoms: _28  and  _29
REMARK   12  A    between atoms: _28  and  _31
REMARK   13  A    between atoms: _31  and  _32
REMARK   14  A    between atoms: _36  and  NI_307
REMARK   15  A    between atoms: _37  and  _39
REMARK   16  A    between atoms: _39  and  _40
REMARK   17  A    between atoms: _39  and  _42
REMARK   18  A    between atoms: _45  and  _47
REMARK   19  A    between atoms: _47  and  _48
REMARK   20  A    between atoms: _47  and  _50
REMARK   21  A    between atoms: _50  and  _51
REMARK   22  A    between atoms: _54  and  _56
REMARK   23  A    between atoms: _56  and  _57
REMARK   24  A    between atoms: _56  and  _59
REMARK   25  A    between atoms: _59  and  _60
REMARK   26  A    between atoms: _63  and  _65
REMARK   27  A    between atoms: _65  and  _66
REMARK   28  A    between atoms: _69  and  _71
REMARK   29  A    between atoms: _71  and  _72
REMARK   30  A    between atoms: _71  and  _74
REMARK   31  A    between atoms: _76  and  _78
REMARK   32  A    between atoms: _78  and  _79
REMARK   33  A    between atoms: _78  and  _81
REMARK   34  A    between atoms: _81  and  _82
REMARK   35  A    between atoms: _82  and  _84
REMARK   36  A    between atoms: _84  and  NI_307
REMARK   37  A    between atoms: _85  and  _87
REMARK   38  A    between atoms: _87  and  _88
REMARK   39  A    between atoms: _87  and  _90
REMARK   40  A    between atoms: _90  and  _91
REMARK   41  A    between atoms: _94  and  _96
REMARK   42  A    between atoms: _96  and  _97
REMARK   43  A    between atoms: _96  and  _99
REMARK   44  A    between atoms: _101  and  _103
REMARK   45  A    between atoms: _103  and  _104
REMARK   46  A    between atoms: _103  and  _106
REMARK   47  A    between atoms: _106  and  _107
REMARK   48  A    between atoms: _109  and  _111
REMARK   49  A    between atoms: _111  and  _112
REMARK   50  A    between atoms: _111  and  _114
REMARK   51  A    between atoms: _117  and  _119
REMARK   52  A    between atoms: _119  and  _120
REMARK   53  A    between atoms: _119  and  _122
REMARK   54  A    between atoms: _122  and  _123
REMARK   55  A    between atoms: _126  and  _128
REMARK   56  A    between atoms: _128  and  _129
REMARK   57  A    between atoms: _128  and  _131
REMARK   58  A    between atoms: _131  and  _132
REMARK   59  A    between atoms: _132  and  _133
REMARK   60  A    between atoms: _133  and  _134
REMARK   61  A    between atoms: _134  and  _135
REMARK   62  A    between atoms: _139  and  _141
REMARK   63  A    between atoms: _141  and  _142
REMARK   64  A    between atoms: _141  and  _144
REMARK   65  A    between atoms: _144  and  _145
REMARK   66  A    between atoms: _148  and  _150
REMARK   67  A    between atoms: _150  and  _151
REMARK   68  A    between atoms: _150  and  _153
REMARK   69  A    between atoms: _153  and  _154
REMARK   70  A    between atoms: _157  and  _159
REMARK   71  A    between atoms: _159  and  _160
REMARK   72  A    between atoms: _163  and  _165
REMARK   73  A    between atoms: _165  and  _166
REMARK   74  A    between atoms: _165  and  _168
REMARK   75  A    between atoms: _168  and  _169
REMARK   76  A    between atoms: _172  and  _174
REMARK   77  A    between atoms: _174  and  _175
REMARK   78  A    between atoms: _174  and  _177
REMARK   79  A    between atoms: _177  and  _178
REMARK   80  A    between atoms: _183  and  _184
REMARK   81  A    between atoms: _186  and  _188
REMARK   82  A    between atoms: _188  and  _189
REMARK   83  A    between atoms: _188  and  _191
REMARK   84  A    between atoms: _191  and  _192
REMARK   85  A    between atoms: _198  and  _200
REMARK   86  A    between atoms: _200  and  _201
REMARK   87  A    between atoms: _200  and  _203
REMARK   88  A    between atoms: _203  and  _204
REMARK   89  A    between atoms: _204  and  _205
REMARK   90  A    between atoms: _207  and  _209
REMARK   91  A    between atoms: _209  and  _210
REMARK   92  A    between atoms: _209  and  _212
REMARK   93  A    between atoms: _215  and  _217
REMARK   94  A    between atoms: _217  and  _218
REMARK   95  A    between atoms: _220  and  _222
REMARK   96  A    between atoms: _222  and  _223
REMARK   97  A    between atoms: _222  and  _225
REMARK   98  A    between atoms: _225  and  _226
REMARK   99  A    between atoms: _226  and  _227
REMARK  100  A    between atoms: _232  and  _234
REMARK  101  A    between atoms: _234  and  _235
REMARK  102  A    between atoms: _237  and  _239
REMARK  103  A    between atoms: _239  and  _240
REMARK  104  A    between atoms: _239  and  _242
REMARK  105  A    between atoms: _242  and  _243
REMARK  106  A    between atoms: _249  and  _251
REMARK  107  A    between atoms: _251  and  _252
REMARK  108  A    between atoms: _251  and  _254
REMARK  109  A    between atoms: _254  and  _255
REMARK  110  A    between atoms: _260  and  _261
REMARK  111  A    between atoms: _263  and  _265
REMARK  112  A    between atoms: _265  and  _266
REMARK  113  A    between atoms: _265  and  _268
REMARK  114  A    between atoms: _271  and  _273
REMARK  115  A    between atoms: _273  and  _274
REMARK  116  A    between atoms: _277  and  _279
REMARK  117  A    between atoms: _279  and  _280
REMARK  118  A    between atoms: _279  and  _282
REMARK  119  A    between atoms: _282  and  _283
REMARK  120  A    between atoms: _288  and  _289
REMARK  121  A    between atoms: _291  and  _293
REMARK  122  A    between atoms: _293  and  _294
REMARK  123  A    between atoms: _293  and  _296
REMARK  124  A    between atoms: _296  and  _297
REMARK                            x       y       z     vdW  Elec       q    Type
REMARK                         _______ _______ _______ _____ _____    ______ ____
ROOT
ATOM      1  CA  GLN A   2      -0.679 -22.905 -36.386  0.00  0.00    +0.137 C 
ENDROOT
BRANCH   1   3
ATOM      2  C   GLY A   1      -0.487 -23.275 -38.781  0.00  0.00    +0.240 C 
ATOM      3  N   GLN A   2      -0.425 -22.447 -37.746  0.00  0.00    -0.298 N 
ATOM      4  H   GLN A   2      -0.190 -21.447 -37.909  0.00  0.00    +0.150 HD
ATOM      5  O   GLY A   1      -0.713 -24.486 -38.676  0.00  0.00    -0.274 OA
BRANCH   2   6
ATOM      6  CA  GLY A   1      -0.254 -22.654 -40.147  0.00  0.00    +0.169 C 
BRANCH   6   7
ATOM      7  N   GLY A   1      -0.936 -21.358 -40.285  0.00  0.00    -0.236 NA
ATOM      8  H   GLY A   1      -0.356 -20.511 -40.453  0.00  0.00    +0.142 HD
ENDBRANCH   6   7
ENDBRANCH   2   6
ENDBRANCH   1   3
BRANCH   1   9
ATOM      9  C   GLN A   2      -2.143 -23.292 -36.251  0.00  0.00    +0.227 C 
ATOM     10  O   GLN A   2      -2.458 -24.346 -35.671  0.00  0.00    -0.286 OA
ENDBRANCH   1   9
BRANCH   1  11
ATOM     11  CB  GLN A   2      -0.281 -21.834 -35.378  0.00  0.00    +0.037 C 
BRANCH  11  12
ATOM     12  CG  GLN A   2       1.235 -21.733 -35.190  0.00  0.00    +0.087 C 
BRANCH  12  13
ATOM     13  CD  GLN A   2       1.826 -23.036 -34.686  0.00  0.00    +0.219 C 
ATOM     14  OE1 GLN A   2       1.576 -23.430 -33.557  0.00  0.00    -0.275 OA
ATOM     15  NE2 GLN A   2       2.590 -23.736 -35.542  0.00  0.00    -0.329 N 
ATOM     16 HE21 GLN A   2       2.993 -24.650 -35.252  0.00  0.00    +0.145 HD
ATOM     17 HE22 GLN A   2       2.778 -23.364 -36.495  0.00  0.00    +0.145 HD
ENDBRANCH  12  13
ENDBRANCH  11  12
ENDBRANCH   1  11
TORSDOF 7
REMARK  Name = ../refined-set-2016/4msa/4msa_pocket.pdb
REMARK  124 active torsions:
REMARK  status: ('A' for Active; 'I' for Inactive)
REMARK    1  A    between atoms: _1  and  _3
REMARK    2  A    between atoms: _3  and  _4
REMARK    3  A    between atoms: _3  and  _6
REMARK    4  A    between atoms: _6  and  _7
REMARK    5  A    between atoms: _12  and  _13
REMARK    6  A    between atoms: _15  and  _17
REMARK    7  A    between atoms: _17  and  _18
REMARK    8  A    between atoms: _17  and  _20
REMARK    9  A    between atoms: _20  and  _21
REMARK   10  A    between atoms: _26  and  _28
REMARK   11  A    between atoms: _28  and  _29
REMARK   12  A    between atoms: _28  and  _31
REMARK   13  A    between atoms: _31  and  _32
REMARK   14  A    between atoms: _36  and  NI_307
REMARK   15  A    between atoms: _37  and  _39
REMARK   16  A    between atoms: _39  and  _40
REMARK   17  A    between atoms: _39  and  _42
REMARK   18  A    between atoms: _45  and  _47
REMARK   19  A    between atoms: _47  and  _48
REMARK   20  A    between atoms: _47  and  _50
REMARK   21  A    between atoms: _50  and  _51
REMARK   22  A    between atoms: _54  and  _56
REMARK   23  A    between atoms: _56  and  _57
REMARK   24  A    between atoms: _56  and  _59
REMARK   25  A    between atoms: _59  and  _60
REMARK   26  A    between atoms: _63  and  _65
REMARK   27  A    between atoms: _65  and  _66
REMARK   28  A    between atoms: _69  and  _71
REMARK   29  A    between atoms: _71  and  _72
REMARK   30  A    between atoms: _71  and  _74
REMARK   31  A    between atoms: _76  and  _78
REMARK   32  A    between atoms: _78  and  _79
REMARK   33  A    between atoms: _78  and  _81
REMARK   34  A    between atoms: _81  and  _82
REMARK   35  A    between atoms: _82  and  _84
REMARK   36  A    between atoms: _84  and  NI_307
REMARK   37  A    between atoms: _85  and  _87
REMARK   38  A    between atoms: _87  and  _88
REMARK   39  A    between atoms: _87  and  _90
REMARK   40  A    between atoms: _90  and  _91
REMARK   41  A    between atoms: _94  and  _96
REMARK   42  A    between atoms: _96  and  _97
REMARK   43  A    between atoms: _96  and  _99
REMARK   44  A    between atoms: _101  and  _103
REMARK   45  A    between atoms: _103  and  _104
REMARK   46  A    between atoms: _103  and  _106
REMARK   47  A    between atoms: _106  and  _107
REMARK   48  A    between atoms: _109  and  _111
REMARK   49  A    between atoms: _111  and  _112
REMARK   50  A    between atoms: _111  and  _114
REMARK   51  A    between atoms: _117  and  _119
REMARK   52  A    between atoms: _119  and  _120
REMARK   53  A    between atoms: _119  and  _122
REMARK   54  A    between atoms: _122  and  _123
REMARK   55  A    between atoms: _126  and  _128
REMARK   56  A    between atoms: _128  and  _129
REMARK   57  A    between atoms: _128  and  _131
REMARK   58  A    between atoms: _131  and  _132
REMARK   59  A    between atoms: _132  and  _133
REMARK   60  A    between atoms: _133  and  _134
REMARK   61  A    between atoms: _134  and  _135
REMARK   62  A    between atoms: _139  and  _141
REMARK   63  A    between atoms: _141  and  _142
REMARK   64  A    between atoms: _141  and  _144
REMARK   65  A    between atoms: _144  and  _145
REMARK   66  A    between atoms: _148  and  _150
REMARK   67  A    between atoms: _150  and  _151
REMARK   68  A    between atoms: _150  and  _153
REMARK   69  A    between atoms: _153  and  _154
REMARK   70  A    between atoms: _157  and  _159
REMARK   71  A    between atoms: _159  and  _160
REMARK   72  A    between atoms: _163  and  _165
REMARK   73  A    between atoms: _165  and  _166
REMARK   74  A    between atoms: _165  and  _168
REMARK   75  A    between atoms: _168  and  _169
REMARK   76  A    between atoms: _172  and  _174
REMARK   77  A    between atoms: _174  and  _175
REMARK   78  A    between atoms: _174  and  _177
REMARK   79  A    between atoms: _177  and  _178
REMARK   80  A    between atoms: _183  and  _184
REMARK   81  A    between atoms: _186  and  _188
REMARK   82  A    between atoms: _188  and  _189
REMARK   83  A    between atoms: _188  and  _191
REMARK   84  A    between atoms: _191  and  _192
REMARK   85  A    between atoms: _198  and  _200
REMARK   86  A    between atoms: _200  and  _201
REMARK   87  A    between atoms: _200  and  _203
REMARK   88  A    between atoms: _203  and  _204
REMARK   89  A    between atoms: _204  and  _205
REMARK   90  A    between atoms: _207  and  _209
REMARK   91  A    between atoms: _209  and  _210
REMARK   92  A    between atoms: _209  and  _212
REMARK   93  A    between atoms: _215  and  _217
REMARK   94  A    between atoms: _217  and  _218
REMARK   95  A    between atoms: _220  and  _222
REMARK   96  A    between atoms: _222  and  _223
REMARK   97  A    between atoms: _222  and  _225
REMARK   98  A    between atoms: _225  and  _226
REMARK   99  A    between atoms: _226  and  _227
REMARK  100  A    between atoms: _232  and  _234
REMARK  101  A    between atoms: _234  and  _235
REMARK  102  A    between atoms: _237  and  _239
REMARK  103  A    between atoms: _239  and  _240
REMARK  104  A    between atoms: _239  and  _242
REMARK  105  A    between atoms: _242  and  _243
REMARK  106  A    between atoms: _249  and  _251
REMARK  107  A    between atoms: _251  and  _252
REMARK  108  A    between atoms: _251  and  _254
REMARK  109  A    between atoms: _254  and  _255
REMARK  110  A    between atoms: _260  and  _261
REMARK  111  A    between atoms: _263  and  _265
REMARK  112  A    between atoms: _265  and  _266
REMARK  113  A    between atoms: _265  and  _268
REMARK  114  A    between atoms: _271  and  _273
REMARK  115  A    between atoms: _273  and  _274
REMARK  116  A    between atoms: _277  and  _279
REMARK  117  A    between atoms: _279  and  _280
REMARK  118  A    between atoms: _279  and  _282
REMARK  119  A    between atoms: _282  and  _283
REMARK  120  A    between atoms: _288  and  _289
REMARK  121  A    between atoms: _291  and  _293
REMARK  122  A    between atoms: _293  and  _294
REMARK  123  A    between atoms: _293  and  _296
REMARK  124  A    between atoms: _296  and  _297
REMARK                            x       y       z     vdW  Elec       q    Type
REMARK                         _______ _______ _______ _____ _____    ______ ____
ROOT
ATOM      1  C   PHE A   2      -2.807 -28.002 -35.636  0.00  0.00    +0.241 C 
ATOM      2  N   TYR A   3      -3.377 -26.978 -35.001  0.00  0.00    -0.298 N 
ATOM      3  H   TYR A   3      -3.173 -26.004 -35.303  0.00  0.00    +0.150 HD
ATOM      4  O   PHE A   2      -3.026 -29.171 -35.322  0.00  0.00    -0.273 OA
ENDROOT
BRANCH   1   5
ATOM      5  CA  PHE A   2      -1.872 -27.682 -36.816  0.00  0.00    +0.153 C 
BRANCH   5   7
ATOM      6  C   GLY A   1      -3.585 -26.882 -38.337  0.00  0.00    +0.240 C 
ATOM      7  N   PHE A   2      -2.434 -26.678 -37.688  0.00  0.00    -0.297 N 
ATOM      8  H   PHE A   2      -1.932 -25.776 -37.814  0.00  0.00    +0.150 HD
ATOM      9  O   GLY A   1      -4.210 -27.948 -38.281  0.00  0.00    -0.274 OA
BRANCH   6  10
ATOM     10  CA  GLY A   1      -4.073 -25.740 -39.214  0.00  0.00    +0.169 C 
BRANCH  10  11
ATOM     11  N   GLY A   1      -4.028 -24.448 -38.549  0.00  0.00    -0.236 NA
ATOM     12  H   GLY A   1      -3.461 -23.686 -38.972  0.00  0.00    +0.142 HD
ENDBRANCH  10  11
ENDBRANCH   6  10
ENDBRANCH   5   7
BRANCH   5  13
ATOM     13  CB  PHE A   2      -0.471 -27.258 -36.329  0.00  0.00    +0.055 C 
BRANCH  13  14
ATOM     14  CG  PHE A   2       0.239 -28.343 -35.571  0.00  0.00    -0.020 A 
ATOM     15  CD2 PHE A   2       0.218 -28.357 -34.169  0.00  0.00    -0.004 A 
ATOM     16  CE2 PHE A   2       0.838 -29.393 -33.470  0.00  0.00    -0.000 A 
ATOM     17  CZ  PHE A   2       1.485 -30.424 -34.164  0.00  0.00    -0.000 A 
ATOM     18  CE1 PHE A   2       1.503 -30.419 -35.564  0.00  0.00    -0.000 A 
ATOM     19  CD1 PHE A   2       0.898 -29.373 -36.253  0.00  0.00    -0.004 A 
ENDBRANCH  13  14
ENDBRANCH   5  13
ENDBRANCH   1   5
BRANCH   2  20
ATOM     20  CA  TYR A   3      -4.296 -27.218 -33.871  0.00  0.00    +0.141 C 
BRANCH  20  21
ATOM     21  C   TYR A   3      -5.551 -27.934 -34.338  0.00  0.00    +0.227 C 
ATOM     22  O   TYR A   3      -6.024 -28.852 -33.673  0.00  0.00    -0.286 OA
ENDBRANCH  20  21
BRANCH  20  23
ATOM     23  CB  TYR A   3      -4.691 -25.909 -33.180  0.00  0.00    +0.054 C 
BRANCH  23  24
ATOM     24  CG  TYR A   3      -3.660 -25.353 -32.211  0.00  0.00    -0.020 A 
ATOM     25  CD2 TYR A   3      -3.941 -25.263 -30.847  0.00  0.00    -0.001 A 
ATOM     26  CE2 TYR A   3      -2.992 -24.730 -29.946  0.00  0.00    +0.036 A 
ATOM     27  CZ  TYR A   3      -1.748 -24.317 -30.433  0.00  0.00    +0.134 A 
ATOM     28  CE1 TYR A   3      -1.452 -24.416 -31.785  0.00  0.00    +0.036 A 
ATOM     29  CD1 TYR A   3      -2.398 -24.934 -32.660  0.00  0.00    -0.001 A 
BRANCH  27  30
ATOM     30  OH  TYR A   3      -0.797 -23.799 -29.591  0.00  0.00    -0.506 OA
ATOM     31  HH  TYR A   3       0.011 -23.565 -30.112  0.00  0.00    +0.292 HD
ENDBRANCH  27  30
ENDBRANCH  23  24
ENDBRANCH  20  23
ENDBRANCH   2  20
TORSDOF 11
REMARK  Name = ../refined-set-2016/4msa/4msa_pocket.pdb
REMARK  124 active torsions:
REMARK  status: ('A' for Active; 'I' for Inactive)
REMARK    1  A    between atoms: _1  and  _3
REMARK    2  A    between atoms: _3  and  _4
REMARK    3  A    between atoms: _3  and  _6
REMARK    4  A    between atoms: _6  and  _7
REMARK    5  A    between atoms: _12  and  _13
REMARK    6  A    between atoms: _15  and  _17
REMARK    7  A    between atoms: _17  and  _18
REMARK    8  A    between atoms: _17  and  _20
REMARK    9  A    between atoms: _20  and  _21
REMARK   10  A    between atoms: _26  and  _28
REMARK   11  A    between atoms: _28  and  _29
REMARK   12  A    between atoms: _28  and  _31
REMARK   13  A    between atoms: _31  and  _32
REMARK   14  A    between atoms: _36  and  NI_307
REMARK   15  A    between atoms: _37  and  _39
REMARK   16  A    between atoms: _39  and  _40
REMARK   17  A    between atoms: _39  and  _42
REMARK   18  A    between atoms: _45  and  _47
REMARK   19  A    between atoms: _47  and  _48
REMARK   20  A    between atoms: _47  and  _50
REMARK   21  A    between atoms: _50  and  _51
REMARK   22  A    between atoms: _54  and  _56
REMARK   23  A    between atoms: _56  and  _57
REMARK   24  A    between atoms: _56  and  _59
REMARK   25  A    between atoms: _59  and  _60
REMARK   26  A    between atoms: _63  and  _65
REMARK   27  A    between atoms: _65  and  _66
REMARK   28  A    between atoms: _69  and  _71
REMARK   29  A    between atoms: _71  and  _72
REMARK   30  A    between atoms: _71  and  _74
REMARK   31  A    between atoms: _76  and  _78
REMARK   32  A    between atoms: _78  and  _79
REMARK   33  A    between atoms: _78  and  _81
REMARK   34  A    between atoms: _81  and  _82
REMARK   35  A    between atoms: _82  and  _84
REMARK   36  A    between atoms: _84  and  NI_307
REMARK   37  A    between atoms: _85  and  _87
REMARK   38  A    between atoms: _87  and  _88
REMARK   39  A    between atoms: _87  and  _90
REMARK   40  A    between atoms: _90  and  _91
REMARK   41  A    between atoms: _94  and  _96
REMARK   42  A    between atoms: _96  and  _97
REMARK   43  A    between atoms: _96  and  _99
REMARK   44  A    between atoms: _101  and  _103
REMARK   45  A    between atoms: _103  and  _104
REMARK   46  A    between atoms: _103  and  _106
REMARK   47  A    between atoms: _106  and  _107
REMARK   48  A    between atoms: _109  and  _111
REMARK   49  A    between atoms: _111  and  _112
REMARK   50  A    between atoms: _111  and  _114
REMARK   51  A    between atoms: _117  and  _119
REMARK   52  A    between atoms: _119  and  _120
REMARK   53  A    between atoms: _119  and  _122
REMARK   54  A    between atoms: _122  and  _123
REMARK   55  A    between atoms: _126  and  _128
REMARK   56  A    between atoms: _128  and  _129
REMARK   57  A    between atoms: _128  and  _131
REMARK   58  A    between atoms: _131  and  _132
REMARK   59  A    between atoms: _132  and  _133
REMARK   60  A    between atoms: _133  and  _134
REMARK   61  A    between atoms: _134  and  _135
REMARK   62  A    between atoms: _139  and  _141
REMARK   63  A    between atoms: _141  and  _142
REMARK   64  A    between atoms: _141  and  _144
REMARK   65  A    between atoms: _144  and  _145
REMARK   66  A    between atoms: _148  and  _150
REMARK   67  A    between atoms: _150  and  _151
REMARK   68  A    between atoms: _150  and  _153
REMARK   69  A    between atoms: _153  and  _154
REMARK   70  A    between atoms: _157  and  _159
REMARK   71  A    between atoms: _159  and  _160
REMARK   72  A    between atoms: _163  and  _165
REMARK   73  A    between atoms: _165  and  _166
REMARK   74  A    between atoms: _165  and  _168
REMARK   75  A    between atoms: _168  and  _169
REMARK   76  A    between atoms: _172  and  _174
REMARK   77  A    between atoms: _174  and  _175
REMARK   78  A    between atoms: _174  and  _177
REMARK   79  A    between atoms: _177  and  _178
REMARK   80  A    between atoms: _183  and  _184
REMARK   81  A    between atoms: _186  and  _188
REMARK   82  A    between atoms: _188  and  _189
REMARK   83  A    between atoms: _188  and  _191
REMARK   84  A    between atoms: _191  and  _192
REMARK   85  A    between atoms: _198  and  _200
REMARK   86  A    between atoms: _200  and  _201
REMARK   87  A    between atoms: _200  and  _203
REMARK   88  A    between atoms: _203  and  _204
REMARK   89  A    between atoms: _204  and  _205
REMARK   90  A    between atoms: _207  and  _209
REMARK   91  A    between atoms: _209  and  _210
REMARK   92  A    between atoms: _209  and  _212
REMARK   93  A    between atoms: _215  and  _217
REMARK   94  A    between atoms: _217  and  _218
REMARK   95  A    between atoms: _220  and  _222
REMARK   96  A    between atoms: _222  and  _223
REMARK   97  A    between atoms: _222  and  _225
REMARK   98  A    between atoms: _225  and  _226
REMARK   99  A    between atoms: _226  and  _227
REMARK  100  A    between atoms: _232  and  _234
REMARK  101  A    between atoms: _234  and  _235
REMARK  102  A    between atoms: _237  and  _239
REMARK  103  A    between atoms: _239  and  _240
REMARK  104  A    between atoms: _239  and  _242
REMARK  105  A    between atoms: _242  and  _243
REMARK  106  A    between atoms: _249  and  _251
REMARK  107  A    between atoms: _251  and  _252
REMARK  108  A    between atoms: _251  and  _254
REMARK  109  A    between atoms: _254  and  _255
REMARK  110  A    between atoms: _260  and  _261
REMARK  111  A    between atoms: _263  and  _265
REMARK  112  A    between atoms: _265  and  _266
REMARK  113  A    between atoms: _265  and  _268
REMARK  114  A    between atoms: _271  and  _273
REMARK  115  A    between atoms: _273  and  _274
REMARK  116  A    between atoms: _277  and  _279
REMARK  117  A    between atoms: _279  and  _280
REMARK  118  A    between atoms: _279  and  _282
REMARK  119  A    between atoms: _282  and  _283
REMARK  120  A    between atoms: _288  and  _289
REMARK  121  A    between atoms: _291  and  _293
REMARK  122  A    between atoms: _293  and  _294
REMARK  123  A    between atoms: _293  and  _296
REMARK  124  A    between atoms: _296  and  _297
REMARK                            x       y       z     vdW  Elec       q    Type
REMARK                         _______ _______ _______ _____ _____    ______ ____
ROOT
ATOM      1  C   VAL A   1      -3.785 -32.342 -33.429  0.00  0.00    +0.238 C 
ATOM      2  O   VAL A   1      -4.288 -33.283 -32.765  0.00  0.00    -0.274 OA
ATOM      3  N   ALA A   2      -3.542 -31.149 -32.898  0.00  0.00    -0.298 N 
ATOM      4  H   ALA A   2      -3.356 -30.329 -33.511  0.00  0.00    +0.150 HD
ENDROOT
BRANCH   3   5
ATOM      5  CA  ALA A   2      -3.538 -30.996 -31.414  0.00  0.00    +0.137 C 
ATOM      6  CB  ALA A   2      -2.914 -29.667 -30.993  0.00  0.00    +0.030 C 
BRANCH   5   7
ATOM      7  C   ALA A   2      -4.930 -31.175 -30.799  0.00  0.00    +0.227 C 
ATOM      8  O   ALA A   2      -5.119 -31.951 -29.851  0.00  0.00    -0.286 OA
ENDBRANCH   5   7
ENDBRANCH   3   5
BRANCH   1   9
ATOM      9  CA  VAL A   1      -3.431 -32.534 -34.915  0.00  0.00    +0.145 C 
BRANCH   9  10
ATOM     10  CB  VAL A   1      -1.894 -32.294 -35.151  0.00  0.00    +0.025 C 
ATOM     11  CG2 VAL A   1      -1.068 -33.279 -34.358  0.00  0.00    +0.002 C 
ATOM     12  CG1 VAL A   1      -1.552 -32.416 -36.662  0.00  0.00    +0.002 C 
ENDBRANCH   9  10
BRANCH   9  13
ATOM     13  N   VAL A   1      -4.250 -31.696 -35.758  0.00  0.00    -0.238 NA
ATOM     14  H   VAL A   1      -4.193 -30.664 -35.644  0.00  0.00    +0.142 HD
ENDBRANCH   9  13
ENDBRANCH   1   9
TORSDOF 5
REMARK  Name = ../refined-set-2016/4msa/4msa_pocket.pdb
REMARK  124 active torsions:
REMARK  status: ('A' for Active; 'I' for Inactive)
REMARK    1  A    between atoms: _1  and  _3
REMARK    2  A    between atoms: _3  and  _4
REMARK    3  A    between atoms: _3  and  _6
REMARK    4  A    between atoms: _6  and  _7
REMARK    5  A    between atoms: _12  and  _13
REMARK    6  A    between atoms: _15  and  _17
REMARK    7  A    between atoms: _17  and  _18
REMARK    8  A    between atoms: _17  and  _20
REMARK    9  A    between atoms: _20  and  _21
REMARK   10  A    between atoms: _26  and  _28
REMARK   11  A    between atoms: _28  and  _29
REMARK   12  A    between atoms: _28  and  _31
REMARK   13  A    between atoms: _31  and  _32
REMARK   14  A    between atoms: _36  and  NI_307
REMARK   15  A    between atoms: _37  and  _39
REMARK   16  A    between atoms: _39  and  _40
REMARK   17  A    between atoms: _39  and  _42
REMARK   18  A    between atoms: _45  and  _47
REMARK   19  A    between atoms: _47  and  _48
REMARK   20  A    between atoms: _47  and  _50
REMARK   21  A    between atoms: _50  and  _51
REMARK   22  A    between atoms: _54  and  _56
REMARK   23  A    between atoms: _56  and  _57
REMARK   24  A    between atoms: _56  and  _59
REMARK   25  A    between atoms: _59  and  _60
REMARK   26  A    between atoms: _63  and  _65
REMARK   27  A    between atoms: _65  and  _66
REMARK   28  A    between atoms: _69  and  _71
REMARK   29  A    between atoms: _71  and  _72
REMARK   30  A    between atoms: _71  and  _74
REMARK   31  A    between atoms: _76  and  _78
REMARK   32  A    between atoms: _78  and  _79
REMARK   33  A    between atoms: _78  and  _81
REMARK   34  A    between atoms: _81  and  _82
REMARK   35  A    between atoms: _82  and  _84
REMARK   36  A    between atoms: _84  and  NI_307
REMARK   37  A    between atoms: _85  and  _87
REMARK   38  A    between atoms: _87  and  _88
REMARK   39  A    between atoms: _87  and  _90
REMARK   40  A    between atoms: _90  and  _91
REMARK   41  A    between atoms: _94  and  _96
REMARK   42  A    between atoms: _96  and  _97
REMARK   43  A    between atoms: _96  and  _99
REMARK   44  A    between atoms: _101  and  _103
REMARK   45  A    between atoms: _103  and  _104
REMARK   46  A    between atoms: _103  and  _106
REMARK   47  A    between atoms: _106  and  _107
REMARK   48  A    between atoms: _109  and  _111
REMARK   49  A    between atoms: _111  and  _112
REMARK   50  A    between atoms: _111  and  _114
REMARK   51  A    between atoms: _117  and  _119
REMARK   52  A    between atoms: _119  and  _120
REMARK   53  A    between atoms: _119  and  _122
REMARK   54  A    between atoms: _122  and  _123
REMARK   55  A    between atoms: _126  and  _128
REMARK   56  A    between atoms: _128  and  _129
REMARK   57  A    between atoms: _128  and  _131
REMARK   58  A    between atoms: _131  and  _132
REMARK   59  A    between atoms: _132  and  _133
REMARK   60  A    between atoms: _133  and  _134
REMARK   61  A    between atoms: _134  and  _135
REMARK   62  A    between atoms: _139  and  _141
REMARK   63  A    between atoms: _141  and  _142
REMARK   64  A    between atoms: _141  and  _144
REMARK   65  A    between atoms: _144  and  _145
REMARK   66  A    between atoms: _148  and  _150
REMARK   67  A    between atoms: _150  and  _151
REMARK   68  A    between atoms: _150  and  _153
REMARK   69  A    between atoms: _153  and  _154
REMARK   70  A    between atoms: _157  and  _159
REMARK   71  A    between atoms: _159  and  _160
REMARK   72  A    between atoms: _163  and  _165
REMARK   73  A    between atoms: _165  and  _166
REMARK   74  A    between atoms: _165  and  _168
REMARK   75  A    between atoms: _168  and  _169
REMARK   76  A    between atoms: _172  and  _174
REMARK   77  A    between atoms: _174  and  _175
REMARK   78  A    between atoms: _174  and  _177
REMARK   79  A    between atoms: _177  and  _178
REMARK   80  A    between atoms: _183  and  _184
REMARK   81  A    between atoms: _186  and  _188
REMARK   82  A    between atoms: _188  and  _189
REMARK   83  A    between atoms: _188  and  _191
REMARK   84  A    between atoms: _191  and  _192
REMARK   85  A    between atoms: _198  and  _200
REMARK   86  A    between atoms: _200  and  _201
REMARK   87  A    between atoms: _200  and  _203
REMARK   88  A    between atoms: _203  and  _204
REMARK   89  A    between atoms: _204  and  _205
REMARK   90  A    between atoms: _207  and  _209
REMARK   91  A    between atoms: _209  and  _210
REMARK   92  A    between atoms: _209  and  _212
REMARK   93  A    between atoms: _215  and  _217
REMARK   94  A    between atoms: _217  and  _218
REMARK   95  A    between atoms: _220  and  _222
REMARK   96  A    between atoms: _222  and  _223
REMARK   97  A    between atoms: _222  and  _225
REMARK   98  A    between atoms: _225  and  _226
REMARK   99  A    between atoms: _226  and  _227
REMARK  100  A    between atoms: _232  and  _234
REMARK  101  A    between atoms: _234  and  _235
REMARK  102  A    between atoms: _237  and  _239
REMARK  103  A    between atoms: _239  and  _240
REMARK  104  A    between atoms: _239  and  _242
REMARK  105  A    between atoms: _242  and  _243
REMARK  106  A    between atoms: _249  and  _251
REMARK  107  A    between atoms: _251  and  _252
REMARK  108  A    between atoms: _251  and  _254
REMARK  109  A    between atoms: _254  and  _255
REMARK  110  A    between atoms: _260  and  _261
REMARK  111  A    between atoms: _263  and  _265
REMARK  112  A    between atoms: _265  and  _266
REMARK  113  A    between atoms: _265  and  _268
REMARK  114  A    between atoms: _271  and  _273
REMARK  115  A    between atoms: _273  and  _274
REMARK  116  A    between atoms: _277  and  _279
REMARK  117  A    between atoms: _279  and  _280
REMARK  118  A    between atoms: _279  and  _282
REMARK  119  A    between atoms: _282  and  _283
REMARK  120  A    between atoms: _288  and  _289
REMARK  121  A    between atoms: _291  and  _293
REMARK  122  A    between atoms: _293  and  _294
REMARK  123  A    between atoms: _293  and  _296
REMARK  124  A    between atoms: _296  and  _297
REMARK                            x       y       z     vdW  Elec       q    Type
REMARK                         _______ _______ _______ _____ _____    ______ ____
ROOT
ATOM      1  CG  TYR A   1      -4.610 -32.426 -26.125  0.00  0.00    -0.020 A 
ATOM      2  CD2 TYR A   1      -3.835 -33.126 -25.233  0.00  0.00    -0.001 A 
ATOM      3  CE2 TYR A   1      -2.430 -32.947 -25.218  0.00  0.00    +0.036 A 
ATOM      4  CZ  TYR A   1      -1.869 -32.070 -26.125  0.00  0.00    +0.134 A 
ATOM      5  CE1 TYR A   1      -2.620 -31.356 -27.013  0.00  0.00    +0.036 A 
ATOM      6  CD1 TYR A   1      -4.013 -31.548 -27.009  0.00  0.00    -0.001 A 
ENDROOT
BRANCH   4   7
ATOM      7  OH  TYR A   1      -0.508 -31.875 -26.145  0.00  0.00    -0.506 OA
ATOM      8  HH  TYR A   1      -0.055 -32.735 -26.333  0.00  0.00    +0.292 HD
ENDBRANCH   4   7
BRANCH   1   9
ATOM      9  CB  TYR A   1      -6.100 -32.617 -26.167  0.00  0.00    +0.051 C 
BRANCH   9  10
ATOM     10  CA  TYR A   1      -6.454 -34.026 -26.664  0.00  0.00    +0.137 C 
BRANCH  10  11
ATOM     11  N   TYR A   1      -5.999 -34.250 -28.036  0.00  0.00    -0.239 NA
ATOM     12  H   TYR A   1      -5.737 -33.438 -28.630  0.00  0.00    +0.142 HD
ENDBRANCH  10  11
BRANCH  10  13
ATOM     13  C   TYR A   1      -7.929 -34.328 -26.475  0.00  0.00    +0.224 C 
ATOM     14  O   TYR A   1      -8.333 -34.753 -25.390  0.00  0.00    -0.287 OA
ENDBRANCH  10  13
ENDBRANCH   9  10
ENDBRANCH   1   9
TORSDOF 5
REMARK  Name = ../refined-set-2016/4msa/4msa_pocket.pdb
REMARK  124 active torsions:
REMARK  status: ('A' for Active; 'I' for Inactive)
REMARK    1  A    between atoms: _1  and  _3
REMARK    2  A    between atoms: _3  and  _4
REMARK    3  A    between atoms: _3  and  _6
REMARK    4  A    between atoms: _6  and  _7
REMARK    5  A    between atoms: _12  and  _13
REMARK    6  A    between atoms: _15  and  _17
REMARK    7  A    between atoms: _17  and  _18
REMARK    8  A    between atoms: _17  and  _20
REMARK    9  A    between atoms: _20  and  _21
REMARK   10  A    between atoms: _26  and  _28
REMARK   11  A    between atoms: _28  and  _29
REMARK   12  A    between atoms: _28  and  _31
REMARK   13  A    between atoms: _31  and  _32
REMARK   14  A    between atoms: _36  and  NI_307
REMARK   15  A    between atoms: _37  and  _39
REMARK   16  A    between atoms: _39  and  _40
REMARK   17  A    between atoms: _39  and  _42
REMARK   18  A    between atoms: _45  and  _47
REMARK   19  A    between atoms: _47  and  _48
REMARK   20  A    between atoms: _47  and  _50
REMARK   21  A    between atoms: _50  and  _51
REMARK   22  A    between atoms: _54  and  _56
REMARK   23  A    between atoms: _56  and  _57
REMARK   24  A    between atoms: _56  and  _59
REMARK   25  A    between atoms: _59  and  _60
REMARK   26  A    between atoms: _63  and  _65
REMARK   27  A    between atoms: _65  and  _66
REMARK   28  A    between atoms: _69  and  _71
REMARK   29  A    between atoms: _71  and  _72
REMARK   30  A    between atoms: _71  and  _74
REMARK   31  A    between atoms: _76  and  _78
REMARK   32  A    between atoms: _78  and  _79
REMARK   33  A    between atoms: _78  and  _81
REMARK   34  A    between atoms: _81  and  _82
REMARK   35  A    between atoms: _82  and  _84
REMARK   36  A    between atoms: _84  and  NI_307
REMARK   37  A    between atoms: _85  and  _87
REMARK   38  A    between atoms: _87  and  _88
REMARK   39  A    between atoms: _87  and  _90
REMARK   40  A    between atoms: _90  and  _91
REMARK   41  A    between atoms: _94  and  _96
REMARK   42  A    between atoms: _96  and  _97
REMARK   43  A    between atoms: _96  and  _99
REMARK   44  A    between atoms: _101  and  _103
REMARK   45  A    between atoms: _103  and  _104
REMARK   46  A    between atoms: _103  and  _106
REMARK   47  A    between atoms: _106  and  _107
REMARK   48  A    between atoms: _109  and  _111
REMARK   49  A    between atoms: _111  and  _112
REMARK   50  A    between atoms: _111  and  _114
REMARK   51  A    between atoms: _117  and  _119
REMARK   52  A    between atoms: _119  and  _120
REMARK   53  A    between atoms: _119  and  _122
REMARK   54  A    between atoms: _122  and  _123
REMARK   55  A    between atoms: _126  and  _128
REMARK   56  A    between atoms: _128  and  _129
REMARK   57  A    between atoms: _128  and  _131
REMARK   58  A    between atoms: _131  and  _132
REMARK   59  A    between atoms: _132  and  _133
REMARK   60  A    between atoms: _133  and  _134
REMARK   61  A    between atoms: _134  and  _135
REMARK   62  A    between atoms: _139  and  _141
REMARK   63  A    between atoms: _141  and  _142
REMARK   64  A    between atoms: _141  and  _144
REMARK   65  A    between atoms: _144  and  _145
REMARK   66  A    between atoms: _148  and  _150
REMARK   67  A    between atoms: _150  and  _151
REMARK   68  A    between atoms: _150  and  _153
REMARK   69  A    between atoms: _153  and  _154
REMARK   70  A    between atoms: _157  and  _159
REMARK   71  A    between atoms: _159  and  _160
REMARK   72  A    between atoms: _163  and  _165
REMARK   73  A    between atoms: _165  and  _166
REMARK   74  A    between atoms: _165  and  _168
REMARK   75  A    between atoms: _168  and  _169
REMARK   76  A    between atoms: _172  and  _174
REMARK   77  A    between atoms: _174  and  _175
REMARK   78  A    between atoms: _174  and  _177
REMARK   79  A    between atoms: _177  and  _178
REMARK   80  A    between atoms: _183  and  _184
REMARK   81  A    between atoms: _186  and  _188
REMARK   82  A    between atoms: _188  and  _189
REMARK   83  A    between atoms: _188  and  _191
REMARK   84  A    between atoms: _191  and  _192
REMARK   85  A    between atoms: _198  and  _200
REMARK   86  A    between atoms: _200  and  _201
REMARK   87  A    between atoms: _200  and  _203
REMARK   88  A    between atoms: _203  and  _204
REMARK   89  A    between atoms: _204  and  _205
REMARK   90  A    between atoms: _207  and  _209
REMARK   91  A    between atoms: _209  and  _210
REMARK   92  A    between atoms: _209  and  _212
REMARK   93  A    between atoms: _215  and  _217
REMARK   94  A    between atoms: _217  and  _218
REMARK   95  A    between atoms: _220  and  _222
REMARK   96  A    between atoms: _222  and  _223
REMARK   97  A    between atoms: _222  and  _225
REMARK   98  A    between atoms: _225  and  _226
REMARK   99  A    between atoms: _226  and  _227
REMARK  100  A    between atoms: _232  and  _234
REMARK  101  A    between atoms: _234  and  _235
REMARK  102  A    between atoms: _237  and  _239
REMARK  103  A    between atoms: _239  and  _240
REMARK  104  A    between atoms: _239  and  _242
REMARK  105  A    between atoms: _242  and  _243
REMARK  106  A    between atoms: _249  and  _251
REMARK  107  A    between atoms: _251  and  _252
REMARK  108  A    between atoms: _251  and  _254
REMARK  109  A    between atoms: _254  and  _255
REMARK  110  A    between atoms: _260  and  _261
REMARK  111  A    between atoms: _263  and  _265
REMARK  112  A    between atoms: _265  and  _266
REMARK  113  A    between atoms: _265  and  _268
REMARK  114  A    between atoms: _271  and  _273
REMARK  115  A    between atoms: _273  and  _274
REMARK  116  A    between atoms: _277  and  _279
REMARK  117  A    between atoms: _279  and  _280
REMARK  118  A    between atoms: _279  and  _282
REMARK  119  A    between atoms: _282  and  _283
REMARK  120  A    between atoms: _288  and  _289
REMARK  121  A    between atoms: _291  and  _293
REMARK  122  A    between atoms: _293  and  _294
REMARK  123  A    between atoms: _293  and  _296
REMARK  124  A    between atoms: _296  and  _297
REMARK                            x       y       z     vdW  Elec       q    Type
REMARK                         _______ _______ _______ _____ _____    ______ ____
ROOT
ATOM      1  CG  TRP A   1      -2.239 -19.855 -32.614  0.00  0.00    -0.002 A 
ATOM      2  CD1 TRP A   1      -1.983 -20.894 -31.759  0.00  0.00    +0.068 A 
ATOM      3  NE1 TRP A   1      -0.624 -20.951 -31.487  0.00  0.00    -0.352 N 
ATOM      4  HE1 TRP A   1      -0.159 -21.642 -30.864  0.00  0.00    +0.166 HD
ATOM      5  CE2 TRP A   1       0.004 -19.948 -32.175  0.00  0.00    +0.056 A 
ATOM      6  CZ2 TRP A   1       1.355 -19.604 -32.222  0.00  0.00    +0.017 A 
ATOM      7  CH2 TRP A   1       1.704 -18.522 -33.004  0.00  0.00    +0.001 A 
ATOM      8  CZ3 TRP A   1       0.756 -17.804 -33.731  0.00  0.00    +0.000 A 
ATOM      9  CE3 TRP A   1      -0.593 -18.135 -33.674  0.00  0.00    +0.001 A 
ATOM     10  CD2 TRP A   1      -0.983 -19.234 -32.889  0.00  0.00    +0.013 A 
ENDROOT
BRANCH   1  11
ATOM     11  CB  TRP A   1      -3.555 -19.414 -33.140  0.00  0.00    +0.053 C 
BRANCH  11  12
ATOM     12  CA  TRP A   1      -3.917 -18.026 -32.591  0.00  0.00    +0.137 C 
BRANCH  12  13
ATOM     13  N   TRP A   1      -4.306 -18.088 -31.180  0.00  0.00    -0.239 NA
ATOM     14  H   TRP A   1      -4.361 -19.008 -30.698  0.00  0.00    +0.142 HD
ENDBRANCH  12  13
BRANCH  12  15
ATOM     15  C   TRP A   1      -5.013 -17.364 -33.434  0.00  0.00    +0.224 C 
ATOM     16  O   TRP A   1      -4.724 -16.592 -34.356  0.00  0.00    -0.287 OA
ENDBRANCH  12  15
ENDBRANCH  11  12
ENDBRANCH   1  11
TORSDOF 4
REMARK  Name = ../refined-set-2016/4msa/4msa_pocket.pdb
REMARK  124 active torsions:
REMARK  status: ('A' for Active; 'I' for Inactive)
REMARK    1  A    between atoms: _1  and  _3
REMARK    2  A    between atoms: _3  and  _4
REMARK    3  A    between atoms: _3  and  _6
REMARK    4  A    between atoms: _6  and  _7
REMARK    5  A    between atoms: _12  and  _13
REMARK    6  A    between atoms: _15  and  _17
REMARK    7  A    between atoms: _17  and  _18
REMARK    8  A    between atoms: _17  and  _20
REMARK    9  A    between atoms: _20  and  _21
REMARK   10  A    between atoms: _26  and  _28
REMARK   11  A    between atoms: _28  and  _29
REMARK   12  A    between atoms: _28  and  _31
REMARK   13  A    between atoms: _31  and  _32
REMARK   14  A    between atoms: _36  and  NI_307
REMARK   15  A    between atoms: _37  and  _39
REMARK   16  A    between atoms: _39  and  _40
REMARK   17  A    between atoms: _39  and  _42
REMARK   18  A    between atoms: _45  and  _47
REMARK   19  A    between atoms: _47  and  _48
REMARK   20  A    between atoms: _47  and  _50
REMARK   21  A    between atoms: _50  and  _51
REMARK   22  A    between atoms: _54  and  _56
REMARK   23  A    between atoms: _56  and  _57
REMARK   24  A    between atoms: _56  and  _59
REMARK   25  A    between atoms: _59  and  _60
REMARK   26  A    between atoms: _63  and  _65
REMARK   27  A    between atoms: _65  and  _66
REMARK   28  A    between atoms: _69  and  _71
REMARK   29  A    between atoms: _71  and  _72
REMARK   30  A    between atoms: _71  and  _74
REMARK   31  A    between atoms: _76  and  _78
REMARK   32  A    between atoms: _78  and  _79
REMARK   33  A    between atoms: _78  and  _81
REMARK   34  A    between atoms: _81  and  _82
REMARK   35  A    between atoms: _82  and  _84
REMARK   36  A    between atoms: _84  and  NI_307
REMARK   37  A    between atoms: _85  and  _87
REMARK   38  A    between atoms: _87  and  _88
REMARK   39  A    between atoms: _87  and  _90
REMARK   40  A    between atoms: _90  and  _91
REMARK   41  A    between atoms: _94  and  _96
REMARK   42  A    between atoms: _96  and  _97
REMARK   43  A    between atoms: _96  and  _99
REMARK   44  A    between atoms: _101  and  _103
REMARK   45  A    between atoms: _103  and  _104
REMARK   46  A    between atoms: _103  and  _106
REMARK   47  A    between atoms: _106  and  _107
REMARK   48  A    between atoms: _109  and  _111
REMARK   49  A    between atoms: _111  and  _112
REMARK   50  A    between atoms: _111  and  _114
REMARK   51  A    between atoms: _117  and  _119
REMARK   52  A    between atoms: _119  and  _120
REMARK   53  A    between atoms: _119  and  _122
REMARK   54  A    between atoms: _122  and  _123
REMARK   55  A    between atoms: _126  and  _128
REMARK   56  A    between atoms: _128  and  _129
REMARK   57  A    between atoms: _128  and  _131
REMARK   58  A    between atoms: _131  and  _132
REMARK   59  A    between atoms: _132  and  _133
REMARK   60  A    between atoms: _133  and  _134
REMARK   61  A    between atoms: _134  and  _135
REMARK   62  A    between atoms: _139  and  _141
REMARK   63  A    between atoms: _141  and  _142
REMARK   64  A    between atoms: _141  and  _144
REMARK   65  A    between atoms: _144  and  _145
REMARK   66  A    between atoms: _148  and  _150
REMARK   67  A    between atoms: _150  and  _151
REMARK   68  A    between atoms: _150  and  _153
REMARK   69  A    between atoms: _153  and  _154
REMARK   70  A    between atoms: _157  and  _159
REMARK   71  A    between atoms: _159  and  _160
REMARK   72  A    between atoms: _163  and  _165
REMARK   73  A    between atoms: _165  and  _166
REMARK   74  A    between atoms: _165  and  _168
REMARK   75  A    between atoms: _168  and  _169
REMARK   76  A    between atoms: _172  and  _174
REMARK   77  A    between atoms: _174  and  _175
REMARK   78  A    between atoms: _174  and  _177
REMARK   79  A    between atoms: _177  and  _178
REMARK   80  A    between atoms: _183  and  _184
REMARK   81  A    between atoms: _186  and  _188
REMARK   82  A    between atoms: _188  and  _189
REMARK   83  A    between atoms: _188  and  _191
REMARK   84  A    between atoms: _191  and  _192
REMARK   85  A    between atoms: _198  and  _200
REMARK   86  A    between atoms: _200  and  _201
REMARK   87  A    between atoms: _200  and  _203
REMARK   88  A    between atoms: _203  and  _204
REMARK   89  A    between atoms: _204  and  _205
REMARK   90  A    between atoms: _207  and  _209
REMARK   91  A    between atoms: _209  and  _210
REMARK   92  A    between atoms: _209  and  _212
REMARK   93  A    between atoms: _215  and  _217
REMARK   94  A    between atoms: _217  and  _218
REMARK   95  A    between atoms: _220  and  _222
REMARK   96  A    between atoms: _222  and  _223
REMARK   97  A    between atoms: _222  and  _225
REMARK   98  A    between atoms: _225  and  _226
REMARK   99  A    between atoms: _226  and  _227
REMARK  100  A    between atoms: _232  and  _234
REMARK  101  A    between atoms: _234  and  _235
REMARK  102  A    between atoms: _237  and  _239
REMARK  103  A    between atoms: _239  and  _240
REMARK  104  A    between atoms: _239  and  _242
REMARK  105  A    between atoms: _242  and  _243
REMARK  106  A    between atoms: _249  and  _251
REMARK  107  A    between atoms: _251  and  _252
REMARK  108  A    between atoms: _251  and  _254
REMARK  109  A    between atoms: _254  and  _255
REMARK  110  A    between atoms: _260  and  _261
REMARK  111  A    between atoms: _263  and  _265
REMARK  112  A    between atoms: _265  and  _266
REMARK  113  A    between atoms: _265  and  _268
REMARK  114  A    between atoms: _271  and  _273
REMARK  115  A    between atoms: _273  and  _274
REMARK  116  A    between atoms: _277  and  _279
REMARK  117  A    between atoms: _279  and  _280
REMARK  118  A    between atoms: _279  and  _282
REMARK  119  A    between atoms: _282  and  _283
REMARK  120  A    between atoms: _288  and  _289
REMARK  121  A    between atoms: _291  and  _293
REMARK  122  A    between atoms: _293  and  _294
REMARK  123  A    between atoms: _293  and  _296
REMARK  124  A    between atoms: _296  and  _297
REMARK                            x       y       z     vdW  Elec       q    Type
REMARK                         _______ _______ _______ _____ _____    ______ ____
ROOT
ATOM      1  O   HOH     1       6.853 -25.633 -23.549  0.00  0.00    +0.000 OA
ENDROOT
TORSDOF 0
REMARK  Name = ../refined-set-2016/4msa/4msa_pocket.pdb
REMARK  124 active torsions:
REMARK  status: ('A' for Active; 'I' for Inactive)
REMARK    1  A    between atoms: _1  and  _3
REMARK    2  A    between atoms: _3  and  _4
REMARK    3  A    between atoms: _3  and  _6
REMARK    4  A    between atoms: _6  and  _7
REMARK    5  A    between atoms: _12  and  _13
REMARK    6  A    between atoms: _15  and  _17
REMARK    7  A    between atoms: _17  and  _18
REMARK    8  A    between atoms: _17  and  _20
REMARK    9  A    between atoms: _20  and  _21
REMARK   10  A    between atoms: _26  and  _28
REMARK   11  A    between atoms: _28  and  _29
REMARK   12  A    between atoms: _28  and  _31
REMARK   13  A    between atoms: _31  and  _32
REMARK   14  A    between atoms: _36  and  NI_307
REMARK   15  A    between atoms: _37  and  _39
REMARK   16  A    between atoms: _39  and  _40
REMARK   17  A    between atoms: _39  and  _42
REMARK   18  A    between atoms: _45  and  _47
REMARK   19  A    between atoms: _47  and  _48
REMARK   20  A    between atoms: _47  and  _50
REMARK   21  A    between atoms: _50  and  _51
REMARK   22  A    between atoms: _54  and  _56
REMARK   23  A    between atoms: _56  and  _57
REMARK   24  A    between atoms: _56  and  _59
REMARK   25  A    between atoms: _59  and  _60
REMARK   26  A    between atoms: _63  and  _65
REMARK   27  A    between atoms: _65  and  _66
REMARK   28  A    between atoms: _69  and  _71
REMARK   29  A    between atoms: _71  and  _72
REMARK   30  A    between atoms: _71  and  _74
REMARK   31  A    between atoms: _76  and  _78
REMARK   32  A    between atoms: _78  and  _79
REMARK   33  A    between atoms: _78  and  _81
REMARK   34  A    between atoms: _81  and  _82
REMARK   35  A    between atoms: _82  and  _84
REMARK   36  A    between atoms: _84  and  NI_307
REMARK   37  A    between atoms: _85  and  _87
REMARK   38  A    between atoms: _87  and  _88
REMARK   39  A    between atoms: _87  and  _90
REMARK   40  A    between atoms: _90  and  _91
REMARK   41  A    between atoms: _94  and  _96
REMARK   42  A    between atoms: _96  and  _97
REMARK   43  A    between atoms: _96  and  _99
REMARK   44  A    between atoms: _101  and  _103
REMARK   45  A    between atoms: _103  and  _104
REMARK   46  A    between atoms: _103  and  _106
REMARK   47  A    between atoms: _106  and  _107
REMARK   48  A    between atoms: _109  and  _111
REMARK   49  A    between atoms: _111  and  _112
REMARK   50  A    between atoms: _111  and  _114
REMARK   51  A    between atoms: _117  and  _119
REMARK   52  A    between atoms: _119  and  _120
REMARK   53  A    between atoms: _119  and  _122
REMARK   54  A    between atoms: _122  and  _123
REMARK   55  A    between atoms: _126  and  _128
REMARK   56  A    between atoms: _128  and  _129
REMARK   57  A    between atoms: _128  and  _131
REMARK   58  A    between atoms: _131  and  _132
REMARK   59  A    between atoms: _132  and  _133
REMARK   60  A    between atoms: _133  and  _134
REMARK   61  A    between atoms: _134  and  _135
REMARK   62  A    between atoms: _139  and  _141
REMARK   63  A    between atoms: _141  and  _142
REMARK   64  A    between atoms: _141  and  _144
REMARK   65  A    between atoms: _144  and  _145
REMARK   66  A    between atoms: _148  and  _150
REMARK   67  A    between atoms: _150  and  _151
REMARK   68  A    between atoms: _150  and  _153
REMARK   69  A    between atoms: _153  and  _154
REMARK   70  A    between atoms: _157  and  _159
REMARK   71  A    between atoms: _159  and  _160
REMARK   72  A    between atoms: _163  and  _165
REMARK   73  A    between atoms: _165  and  _166
REMARK   74  A    between atoms: _165  and  _168
REMARK   75  A    between atoms: _168  and  _169
REMARK   76  A    between atoms: _172  and  _174
REMARK   77  A    between atoms: _174  and  _175
REMARK   78  A    between atoms: _174  and  _177
REMARK   79  A    between atoms: _177  and  _178
REMARK   80  A    between atoms: _183  and  _184
REMARK   81  A    between atoms: _186  and  _188
REMARK   82  A    between atoms: _188  and  _189
REMARK   83  A    between atoms: _188  and  _191
REMARK   84  A    between atoms: _191  and  _192
REMARK   85  A    between atoms: _198  and  _200
REMARK   86  A    between atoms: _200  and  _201
REMARK   87  A    between atoms: _200  and  _203
REMARK   88  A    between atoms: _203  and  _204
REMARK   89  A    between atoms: _204  and  _205
REMARK   90  A    between atoms: _207  and  _209
REMARK   91  A    between atoms: _209  and  _210
REMARK   92  A    between atoms: _209  and  _212
REMARK   93  A    between atoms: _215  and  _217
REMARK   94  A    between atoms: _217  and  _218
REMARK   95  A    between atoms: _220  and  _222
REMARK   96  A    between atoms: _222  and  _223
REMARK   97  A    between atoms: _222  and  _225
REMARK   98  A    between atoms: _225  and  _226
REMARK   99  A    between atoms: _226  and  _227
REMARK  100  A    between atoms: _232  and  _234
REMARK  101  A    between atoms: _234  and  _235
REMARK  102  A    between atoms: _237  and  _239
REMARK  103  A    between atoms: _239  and  _240
REMARK  104  A    between atoms: _239  and  _242
REMARK  105  A    between atoms: _242  and  _243
REMARK  106  A    between atoms: _249  and  _251
REMARK  107  A    between atoms: _251  and  _252
REMARK  108  A    between atoms: _251  and  _254
REMARK  109  A    between atoms: _254  and  _255
REMARK  110  A    between atoms: _260  and  _261
REMARK  111  A    between atoms: _263  and  _265
REMARK  112  A    between atoms: _265  and  _266
REMARK  113  A    between atoms: _265  and  _268
REMARK  114  A    between atoms: _271  and  _273
REMARK  115  A    between atoms: _273  and  _274
REMARK  116  A    between atoms: _277  and  _279
REMARK  117  A    between atoms: _279  and  _280
REMARK  118  A    between atoms: _279  and  _282
REMARK  119  A    between atoms: _282  and  _283
REMARK  120  A    between atoms: _288  and  _289
REMARK  121  A    between atoms: _291  and  _293
REMARK  122  A    between atoms: _293  and  _294
REMARK  123  A    between atoms: _293  and  _296
REMARK  124  A    between atoms: _296  and  _297
REMARK                            x       y       z     vdW  Elec       q    Type
REMARK                         _______ _______ _______ _____ _____    ______ ____
ROOT
ATOM      1  O   HOH     1       1.655 -25.653 -41.990  0.00  0.00    +0.000 OA
ENDROOT
TORSDOF 0
REMARK  Name = ../refined-set-2016/4msa/4msa_pocket.pdb
REMARK  124 active torsions:
REMARK  status: ('A' for Active; 'I' for Inactive)
REMARK    1  A    between atoms: _1  and  _3
REMARK    2  A    between atoms: _3  and  _4
REMARK    3  A    between atoms: _3  and  _6
REMARK    4  A    between atoms: _6  and  _7
REMARK    5  A    between atoms: _12  and  _13
REMARK    6  A    between atoms: _15  and  _17
REMARK    7  A    between atoms: _17  and  _18
REMARK    8  A    between atoms: _17  and  _20
REMARK    9  A    between atoms: _20  and  _21
REMARK   10  A    between atoms: _26  and  _28
REMARK   11  A    between atoms: _28  and  _29
REMARK   12  A    between atoms: _28  and  _31
REMARK   13  A    between atoms: _31  and  _32
REMARK   14  A    between atoms: _36  and  NI_307
REMARK   15  A    between atoms: _37  and  _39
REMARK   16  A    between atoms: _39  and  _40
REMARK   17  A    between atoms: _39  and  _42
REMARK   18  A    between atoms: _45  and  _47
REMARK   19  A    between atoms: _47  and  _48
REMARK   20  A    between atoms: _47  and  _50
REMARK   21  A    between atoms: _50  and  _51
REMARK   22  A    between atoms: _54  and  _56
REMARK   23  A    between atoms: _56  and  _57
REMARK   24  A    between atoms: _56  and  _59
REMARK   25  A    between atoms: _59  and  _60
REMARK   26  A    between atoms: _63  and  _65
REMARK   27  A    between atoms: _65  and  _66
REMARK   28  A    between atoms: _69  and  _71
REMARK   29  A    between atoms: _71  and  _72
REMARK   30  A    between atoms: _71  and  _74
REMARK   31  A    between atoms: _76  and  _78
REMARK   32  A    between atoms: _78  and  _79
REMARK   33  A    between atoms: _78  and  _81
REMARK   34  A    between atoms: _81  and  _82
REMARK   35  A    between atoms: _82  and  _84
REMARK   36  A    between atoms: _84  and  NI_307
REMARK   37  A    between atoms: _85  and  _87
REMARK   38  A    between atoms: _87  and  _88
REMARK   39  A    between atoms: _87  and  _90
REMARK   40  A    between atoms: _90  and  _91
REMARK   41  A    between atoms: _94  and  _96
REMARK   42  A    between atoms: _96  and  _97
REMARK   43  A    between atoms: _96  and  _99
REMARK   44  A    between atoms: _101  and  _103
REMARK   45  A    between atoms: _103  and  _104
REMARK   46  A    between atoms: _103  and  _106
REMARK   47  A    between atoms: _106  and  _107
REMARK   48  A    between atoms: _109  and  _111
REMARK   49  A    between atoms: _111  and  _112
REMARK   50  A    between atoms: _111  and  _114
REMARK   51  A    between atoms: _117  and  _119
REMARK   52  A    between atoms: _119  and  _120
REMARK   53  A    between atoms: _119  and  _122
REMARK   54  A    between atoms: _122  and  _123
REMARK   55  A    between atoms: _126  and  _128
REMARK   56  A    between atoms: _128  and  _129
REMARK   57  A    between atoms: _128  and  _131
REMARK   58  A    between atoms: _131  and  _132
REMARK   59  A    between atoms: _132  and  _133
REMARK   60  A    between atoms: _133  and  _134
REMARK   61  A    between atoms: _134  and  _135
REMARK   62  A    between atoms: _139  and  _141
REMARK   63  A    between atoms: _141  and  _142
REMARK   64  A    between atoms: _141  and  _144
REMARK   65  A    between atoms: _144  and  _145
REMARK   66  A    between atoms: _148  and  _150
REMARK   67  A    between atoms: _150  and  _151
REMARK   68  A    between atoms: _150  and  _153
REMARK   69  A    between atoms: _153  and  _154
REMARK   70  A    between atoms: _157  and  _159
REMARK   71  A    between atoms: _159  and  _160
REMARK   72  A    between atoms: _163  and  _165
REMARK   73  A    between atoms: _165  and  _166
REMARK   74  A    between atoms: _165  and  _168
REMARK   75  A    between atoms: _168  and  _169
REMARK   76  A    between atoms: _172  and  _174
REMARK   77  A    between atoms: _174  and  _175
REMARK   78  A    between atoms: _174  and  _177
REMARK   79  A    between atoms: _177  and  _178
REMARK   80  A    between atoms: _183  and  _184
REMARK   81  A    between atoms: _186  and  _188
REMARK   82  A    between atoms: _188  and  _189
REMARK   83  A    between atoms: _188  and  _191
REMARK   84  A    between atoms: _191  and  _192
REMARK   85  A    between atoms: _198  and  _200
REMARK   86  A    between atoms: _200  and  _201
REMARK   87  A    between atoms: _200  and  _203
REMARK   88  A    between atoms: _203  and  _204
REMARK   89  A    between atoms: _204  and  _205
REMARK   90  A    between atoms: _207  and  _209
REMARK   91  A    between atoms: _209  and  _210
REMARK   92  A    between atoms: _209  and  _212
REMARK   93  A    between atoms: _215  and  _217
REMARK   94  A    between atoms: _217  and  _218
REMARK   95  A    between atoms: _220  and  _222
REMARK   96  A    between atoms: _222  and  _223
REMARK   97  A    between atoms: _222  and  _225
REMARK   98  A    between atoms: _225  and  _226
REMARK   99  A    between atoms: _226  and  _227
REMARK  100  A    between atoms: _232  and  _234
REMARK  101  A    between atoms: _234  and  _235
REMARK  102  A    between atoms: _237  and  _239
REMARK  103  A    between atoms: _239  and  _240
REMARK  104  A    between atoms: _239  and  _242
REMARK  105  A    between atoms: _242  and  _243
REMARK  106  A    between atoms: _249  and  _251
REMARK  107  A    between atoms: _251  and  _252
REMARK  108  A    between atoms: _251  and  _254
REMARK  109  A    between atoms: _254  and  _255
REMARK  110  A    between atoms: _260  and  _261
REMARK  111  A    between atoms: _263  and  _265
REMARK  112  A    between atoms: _265  and  _266
REMARK  113  A    between atoms: _265  and  _268
REMARK  114  A    between atoms: _271  and  _273
REMARK  115  A    between atoms: _273  and  _274
REMARK  116  A    between atoms: _277  and  _279
REMARK  117  A    between atoms: _279  and  _280
REMARK  118  A    between atoms: _279  and  _282
REMARK  119  A    between atoms: _282  and  _283
REMARK  120  A    between atoms: _288  and  _289
REMARK  121  A    between atoms: _291  and  _293
REMARK  122  A    between atoms: _293  and  _294
REMARK  123  A    between atoms: _293  and  _296
REMARK  124  A    between atoms: _296  and  _297
REMARK                            x       y       z     vdW  Elec       q    Type
REMARK                         _______ _______ _______ _____ _____    ______ ____
ROOT
ATOM      1  O   HOH     1       5.690 -29.657 -27.018  0.00  0.00    +0.000 OA
ENDROOT
TORSDOF 0
REMARK  Name = ../refined-set-2016/4msa/4msa_pocket.pdb
REMARK  124 active torsions:
REMARK  status: ('A' for Active; 'I' for Inactive)
REMARK    1  A    between atoms: _1  and  _3
REMARK    2  A    between atoms: _3  and  _4
REMARK    3  A    between atoms: _3  and  _6
REMARK    4  A    between atoms: _6  and  _7
REMARK    5  A    between atoms: _12  and  _13
REMARK    6  A    between atoms: _15  and  _17
REMARK    7  A    between atoms: _17  and  _18
REMARK    8  A    between atoms: _17  and  _20
REMARK    9  A    between atoms: _20  and  _21
REMARK   10  A    between atoms: _26  and  _28
REMARK   11  A    between atoms: _28  and  _29
REMARK   12  A    between atoms: _28  and  _31
REMARK   13  A    between atoms: _31  and  _32
REMARK   14  A    between atoms: _36  and  NI_307
REMARK   15  A    between atoms: _37  and  _39
REMARK   16  A    between atoms: _39  and  _40
REMARK   17  A    between atoms: _39  and  _42
REMARK   18  A    between atoms: _45  and  _47
REMARK   19  A    between atoms: _47  and  _48
REMARK   20  A    between atoms: _47  and  _50
REMARK   21  A    between atoms: _50  and  _51
REMARK   22  A    between atoms: _54  and  _56
REMARK   23  A    between atoms: _56  and  _57
REMARK   24  A    between atoms: _56  and  _59
REMARK   25  A    between atoms: _59  and  _60
REMARK   26  A    between atoms: _63  and  _65
REMARK   27  A    between atoms: _65  and  _66
REMARK   28  A    between atoms: _69  and  _71
REMARK   29  A    between atoms: _71  and  _72
REMARK   30  A    between atoms: _71  and  _74
REMARK   31  A    between atoms: _76  and  _78
REMARK   32  A    between atoms: _78  and  _79
REMARK   33  A    between atoms: _78  and  _81
REMARK   34  A    between atoms: _81  and  _82
REMARK   35  A    between atoms: _82  and  _84
REMARK   36  A    between atoms: _84  and  NI_307
REMARK   37  A    between atoms: _85  and  _87
REMARK   38  A    between atoms: _87  and  _88
REMARK   39  A    between atoms: _87  and  _90
REMARK   40  A    between atoms: _90  and  _91
REMARK   41  A    between atoms: _94  and  _96
REMARK   42  A    between atoms: _96  and  _97
REMARK   43  A    between atoms: _96  and  _99
REMARK   44  A    between atoms: _101  and  _103
REMARK   45  A    between atoms: _103  and  _104
REMARK   46  A    between atoms: _103  and  _106
REMARK   47  A    between atoms: _106  and  _107
REMARK   48  A    between atoms: _109  and  _111
REMARK   49  A    between atoms: _111  and  _112
REMARK   50  A    between atoms: _111  and  _114
REMARK   51  A    between atoms: _117  and  _119
REMARK   52  A    between atoms: _119  and  _120
REMARK   53  A    between atoms: _119  and  _122
REMARK   54  A    between atoms: _122  and  _123
REMARK   55  A    between atoms: _126  and  _128
REMARK   56  A    between atoms: _128  and  _129
REMARK   57  A    between atoms: _128  and  _131
REMARK   58  A    between atoms: _131  and  _132
REMARK   59  A    between atoms: _132  and  _133
REMARK   60  A    between atoms: _133  and  _134
REMARK   61  A    between atoms: _134  and  _135
REMARK   62  A    between atoms: _139  and  _141
REMARK   63  A    between atoms: _141  and  _142
REMARK   64  A    between atoms: _141  and  _144
REMARK   65  A    between atoms: _144  and  _145
REMARK   66  A    between atoms: _148  and  _150
REMARK   67  A    between atoms: _150  and  _151
REMARK   68  A    between atoms: _150  and  _153
REMARK   69  A    between atoms: _153  and  _154
REMARK   70  A    between atoms: _157  and  _159
REMARK   71  A    between atoms: _159  and  _160
REMARK   72  A    between atoms: _163  and  _165
REMARK   73  A    between atoms: _165  and  _166
REMARK   74  A    between atoms: _165  and  _168
REMARK   75  A    between atoms: _168  and  _169
REMARK   76  A    between atoms: _172  and  _174
REMARK   77  A    between atoms: _174  and  _175
REMARK   78  A    between atoms: _174  and  _177
REMARK   79  A    between atoms: _177  and  _178
REMARK   80  A    between atoms: _183  and  _184
REMARK   81  A    between atoms: _186  and  _188
REMARK   82  A    between atoms: _188  and  _189
REMARK   83  A    between atoms: _188  and  _191
REMARK   84  A    between atoms: _191  and  _192
REMARK   85  A    between atoms: _198  and  _200
REMARK   86  A    between atoms: _200  and  _201
REMARK   87  A    between atoms: _200  and  _203
REMARK   88  A    between atoms: _203  and  _204
REMARK   89  A    between atoms: _204  and  _205
REMARK   90  A    between atoms: _207  and  _209
REMARK   91  A    between atoms: _209  and  _210
REMARK   92  A    between atoms: _209  and  _212
REMARK   93  A    between atoms: _215  and  _217
REMARK   94  A    between atoms: _217  and  _218
REMARK   95  A    between atoms: _220  and  _222
REMARK   96  A    between atoms: _222  and  _223
REMARK   97  A    between atoms: _222  and  _225
REMARK   98  A    between atoms: _225  and  _226
REMARK   99  A    between atoms: _226  and  _227
REMARK  100  A    between atoms: _232  and  _234
REMARK  101  A    between atoms: _234  and  _235
REMARK  102  A    between atoms: _237  and  _239
REMARK  103  A    between atoms: _239  and  _240
REMARK  104  A    between atoms: _239  and  _242
REMARK  105  A    between atoms: _242  and  _243
REMARK  106  A    between atoms: _249  and  _251
REMARK  107  A    between atoms: _251  and  _252
REMARK  108  A    between atoms: _251  and  _254
REMARK  109  A    between atoms: _254  and  _255
REMARK  110  A    between atoms: _260  and  _261
REMARK  111  A    between atoms: _263  and  _265
REMARK  112  A    between atoms: _265  and  _266
REMARK  113  A    between atoms: _265  and  _268
REMARK  114  A    between atoms: _271  and  _273
REMARK  115  A    between atoms: _273  and  _274
REMARK  116  A    between atoms: _277  and  _279
REMARK  117  A    between atoms: _279  and  _280
REMARK  118  A    between atoms: _279  and  _282
REMARK  119  A    between atoms: _282  and  _283
REMARK  120  A    between atoms: _288  and  _289
REMARK  121  A    between atoms: _291  and  _293
REMARK  122  A    between atoms: _293  and  _294
REMARK  123  A    between atoms: _293  and  _296
REMARK  124  A    between atoms: _296  and  _297
REMARK                            x       y       z     vdW  Elec       q    Type
REMARK                         _______ _______ _______ _____ _____    ______ ____
ROOT
ATOM      1  O   HOH     1       4.464 -36.971 -31.682  0.00  0.00    +0.000 OA
ENDROOT
TORSDOF 0
REMARK  Name = ../refined-set-2016/4msa/4msa_pocket.pdb
REMARK  124 active torsions:
REMARK  status: ('A' for Active; 'I' for Inactive)
REMARK    1  A    between atoms: _1  and  _3
REMARK    2  A    between atoms: _3  and  _4
REMARK    3  A    between atoms: _3  and  _6
REMARK    4  A    between atoms: _6  and  _7
REMARK    5  A    between atoms: _12  and  _13
REMARK    6  A    between atoms: _15  and  _17
REMARK    7  A    between atoms: _17  and  _18
REMARK    8  A    between atoms: _17  and  _20
REMARK    9  A    between atoms: _20  and  _21
REMARK   10  A    between atoms: _26  and  _28
REMARK   11  A    between atoms: _28  and  _29
REMARK   12  A    between atoms: _28  and  _31
REMARK   13  A    between atoms: _31  and  _32
REMARK   14  A    between atoms: _36  and  NI_307
REMARK   15  A    between atoms: _37  and  _39
REMARK   16  A    between atoms: _39  and  _40
REMARK   17  A    between atoms: _39  and  _42
REMARK   18  A    between atoms: _45  and  _47
REMARK   19  A    between atoms: _47  and  _48
REMARK   20  A    between atoms: _47  and  _50
REMARK   21  A    between atoms: _50  and  _51
REMARK   22  A    between atoms: _54  and  _56
REMARK   23  A    between atoms: _56  and  _57
REMARK   24  A    between atoms: _56  and  _59
REMARK   25  A    between atoms: _59  and  _60
REMARK   26  A    between atoms: _63  and  _65
REMARK   27  A    between atoms: _65  and  _66
REMARK   28  A    between atoms: _69  and  _71
REMARK   29  A    between atoms: _71  and  _72
REMARK   30  A    between atoms: _71  and  _74
REMARK   31  A    between atoms: _76  and  _78
REMARK   32  A    between atoms: _78  and  _79
REMARK   33  A    between atoms: _78  and  _81
REMARK   34  A    between atoms: _81  and  _82
REMARK   35  A    between atoms: _82  and  _84
REMARK   36  A    between atoms: _84  and  NI_307
REMARK   37  A    between atoms: _85  and  _87
REMARK   38  A    between atoms: _87  and  _88
REMARK   39  A    between atoms: _87  and  _90
REMARK   40  A    between atoms: _90  and  _91
REMARK   41  A    between atoms: _94  and  _96
REMARK   42  A    between atoms: _96  and  _97
REMARK   43  A    between atoms: _96  and  _99
REMARK   44  A    between atoms: _101  and  _103
REMARK   45  A    between atoms: _103  and  _104
REMARK   46  A    between atoms: _103  and  _106
REMARK   47  A    between atoms: _106  and  _107
REMARK   48  A    between atoms: _109  and  _111
REMARK   49  A    between atoms: _111  and  _112
REMARK   50  A    between atoms: _111  and  _114
REMARK   51  A    between atoms: _117  and  _119
REMARK   52  A    between atoms: _119  and  _120
REMARK   53  A    between atoms: _119  and  _122
REMARK   54  A    between atoms: _122  and  _123
REMARK   55  A    between atoms: _126  and  _128
REMARK   56  A    between atoms: _128  and  _129
REMARK   57  A    between atoms: _128  and  _131
REMARK   58  A    between atoms: _131  and  _132
REMARK   59  A    between atoms: _132  and  _133
REMARK   60  A    between atoms: _133  and  _134
REMARK   61  A    between atoms: _134  and  _135
REMARK   62  A    between atoms: _139  and  _141
REMARK   63  A    between atoms: _141  and  _142
REMARK   64  A    between atoms: _141  and  _144
REMARK   65  A    between atoms: _144  and  _145
REMARK   66  A    between atoms: _148  and  _150
REMARK   67  A    between atoms: _150  and  _151
REMARK   68  A    between atoms: _150  and  _153
REMARK   69  A    between atoms: _153  and  _154
REMARK   70  A    between atoms: _157  and  _159
REMARK   71  A    between atoms: _159  and  _160
REMARK   72  A    between atoms: _163  and  _165
REMARK   73  A    between atoms: _165  and  _166
REMARK   74  A    between atoms: _165  and  _168
REMARK   75  A    between atoms: _168  and  _169
REMARK   76  A    between atoms: _172  and  _174
REMARK   77  A    between atoms: _174  and  _175
REMARK   78  A    between atoms: _174  and  _177
REMARK   79  A    between atoms: _177  and  _178
REMARK   80  A    between atoms: _183  and  _184
REMARK   81  A    between atoms: _186  and  _188
REMARK   82  A    between atoms: _188  and  _189
REMARK   83  A    between atoms: _188  and  _191
REMARK   84  A    between atoms: _191  and  _192
REMARK   85  A    between atoms: _198  and  _200
REMARK   86  A    between atoms: _200  and  _201
REMARK   87  A    between atoms: _200  and  _203
REMARK   88  A    between atoms: _203  and  _204
REMARK   89  A    between atoms: _204  and  _205
REMARK   90  A    between atoms: _207  and  _209
REMARK   91  A    between atoms: _209  and  _210
REMARK   92  A    between atoms: _209  and  _212
REMARK   93  A    between atoms: _215  and  _217
REMARK   94  A    between atoms: _217  and  _218
REMARK   95  A    between atoms: _220  and  _222
REMARK   96  A    between atoms: _222  and  _223
REMARK   97  A    between atoms: _222  and  _225
REMARK   98  A    between atoms: _225  and  _226
REMARK   99  A    between atoms: _226  and  _227
REMARK  100  A    between atoms: _232  and  _234
REMARK  101  A    between atoms: _234  and  _235
REMARK  102  A    between atoms: _237  and  _239
REMARK  103  A    between atoms: _239  and  _240
REMARK  104  A    between atoms: _239  and  _242
REMARK  105  A    between atoms: _242  and  _243
REMARK  106  A    between atoms: _249  and  _251
REMARK  107  A    between atoms: _251  and  _252
REMARK  108  A    between atoms: _251  and  _254
REMARK  109  A    between atoms: _254  and  _255
REMARK  110  A    between atoms: _260  and  _261
REMARK  111  A    between atoms: _263  and  _265
REMARK  112  A    between atoms: _265  and  _266
REMARK  113  A    between atoms: _265  and  _268
REMARK  114  A    between atoms: _271  and  _273
REMARK  115  A    between atoms: _273  and  _274
REMARK  116  A    between atoms: _277  and  _279
REMARK  117  A    between atoms: _279  and  _280
REMARK  118  A    between atoms: _279  and  _282
REMARK  119  A    between atoms: _282  and  _283
REMARK  120  A    between atoms: _288  and  _289
REMARK  121  A    between atoms: _291  and  _293
REMARK  122  A    between atoms: _293  and  _294
REMARK  123  A    between atoms: _293  and  _296
REMARK  124  A    between atoms: _296  and  _297
REMARK                            x       y       z     vdW  Elec       q    Type
REMARK                         _______ _______ _______ _____ _____    ______ ____
ROOT
ATOM      1  O   HOH     1       6.657 -36.343 -35.786  0.00  0.00    +0.000 OA
ENDROOT
TORSDOF 0
REMARK  Name = ../refined-set-2016/4msa/4msa_pocket.pdb
REMARK  124 active torsions:
REMARK  status: ('A' for Active; 'I' for Inactive)
REMARK    1  A    between atoms: _1  and  _3
REMARK    2  A    between atoms: _3  and  _4
REMARK    3  A    between atoms: _3  and  _6
REMARK    4  A    between atoms: _6  and  _7
REMARK    5  A    between atoms: _12  and  _13
REMARK    6  A    between atoms: _15  and  _17
REMARK    7  A    between atoms: _17  and  _18
REMARK    8  A    between atoms: _17  and  _20
REMARK    9  A    between atoms: _20  and  _21
REMARK   10  A    between atoms: _26  and  _28
REMARK   11  A    between atoms: _28  and  _29
REMARK   12  A    between atoms: _28  and  _31
REMARK   13  A    between atoms: _31  and  _32
REMARK   14  A    between atoms: _36  and  NI_307
REMARK   15  A    between atoms: _37  and  _39
REMARK   16  A    between atoms: _39  and  _40
REMARK   17  A    between atoms: _39  and  _42
REMARK   18  A    between atoms: _45  and  _47
REMARK   19  A    between atoms: _47  and  _48
REMARK   20  A    between atoms: _47  and  _50
REMARK   21  A    between atoms: _50  and  _51
REMARK   22  A    between atoms: _54  and  _56
REMARK   23  A    between atoms: _56  and  _57
REMARK   24  A    between atoms: _56  and  _59
REMARK   25  A    between atoms: _59  and  _60
REMARK   26  A    between atoms: _63  and  _65
REMARK   27  A    between atoms: _65  and  _66
REMARK   28  A    between atoms: _69  and  _71
REMARK   29  A    between atoms: _71  and  _72
REMARK   30  A    between atoms: _71  and  _74
REMARK   31  A    between atoms: _76  and  _78
REMARK   32  A    between atoms: _78  and  _79
REMARK   33  A    between atoms: _78  and  _81
REMARK   34  A    between atoms: _81  and  _82
REMARK   35  A    between atoms: _82  and  _84
REMARK   36  A    between atoms: _84  and  NI_307
REMARK   37  A    between atoms: _85  and  _87
REMARK   38  A    between atoms: _87  and  _88
REMARK   39  A    between atoms: _87  and  _90
REMARK   40  A    between atoms: _90  and  _91
REMARK   41  A    between atoms: _94  and  _96
REMARK   42  A    between atoms: _96  and  _97
REMARK   43  A    between atoms: _96  and  _99
REMARK   44  A    between atoms: _101  and  _103
REMARK   45  A    between atoms: _103  and  _104
REMARK   46  A    between atoms: _103  and  _106
REMARK   47  A    between atoms: _106  and  _107
REMARK   48  A    between atoms: _109  and  _111
REMARK   49  A    between atoms: _111  and  _112
REMARK   50  A    between atoms: _111  and  _114
REMARK   51  A    between atoms: _117  and  _119
REMARK   52  A    between atoms: _119  and  _120
REMARK   53  A    between atoms: _119  and  _122
REMARK   54  A    between atoms: _122  and  _123
REMARK   55  A    between atoms: _126  and  _128
REMARK   56  A    between atoms: _128  and  _129
REMARK   57  A    between atoms: _128  and  _131
REMARK   58  A    between atoms: _131  and  _132
REMARK   59  A    between atoms: _132  and  _133
REMARK   60  A    between atoms: _133  and  _134
REMARK   61  A    between atoms: _134  and  _135
REMARK   62  A    between atoms: _139  and  _141
REMARK   63  A    between atoms: _141  and  _142
REMARK   64  A    between atoms: _141  and  _144
REMARK   65  A    between atoms: _144  and  _145
REMARK   66  A    between atoms: _148  and  _150
REMARK   67  A    between atoms: _150  and  _151
REMARK   68  A    between atoms: _150  and  _153
REMARK   69  A    between atoms: _153  and  _154
REMARK   70  A    between atoms: _157  and  _159
REMARK   71  A    between atoms: _159  and  _160
REMARK   72  A    between atoms: _163  and  _165
REMARK   73  A    between atoms: _165  and  _166
REMARK   74  A    between atoms: _165  and  _168
REMARK   75  A    between atoms: _168  and  _169
REMARK   76  A    between atoms: _172  and  _174
REMARK   77  A    between atoms: _174  and  _175
REMARK   78  A    between atoms: _174  and  _177
REMARK   79  A    between atoms: _177  and  _178
REMARK   80  A    between atoms: _183  and  _184
REMARK   81  A    between atoms: _186  and  _188
REMARK   82  A    between atoms: _188  and  _189
REMARK   83  A    between atoms: _188  and  _191
REMARK   84  A    between atoms: _191  and  _192
REMARK   85  A    between atoms: _198  and  _200
REMARK   86  A    between atoms: _200  and  _201
REMARK   87  A    between atoms: _200  and  _203
REMARK   88  A    between atoms: _203  and  _204
REMARK   89  A    between atoms: _204  and  _205
REMARK   90  A    between atoms: _207  and  _209
REMARK   91  A    between atoms: _209  and  _210
REMARK   92  A    between atoms: _209  and  _212
REMARK   93  A    between atoms: _215  and  _217
REMARK   94  A    between atoms: _217  and  _218
REMARK   95  A    between atoms: _220  and  _222
REMARK   96  A    between atoms: _222  and  _223
REMARK   97  A    between atoms: _222  and  _225
REMARK   98  A    between atoms: _225  and  _226
REMARK   99  A    between atoms: _226  and  _227
REMARK  100  A    between atoms: _232  and  _234
REMARK  101  A    between atoms: _234  and  _235
REMARK  102  A    between atoms: _237  and  _239
REMARK  103  A    between atoms: _239  and  _240
REMARK  104  A    between atoms: _239  and  _242
REMARK  105  A    between atoms: _242  and  _243
REMARK  106  A    between atoms: _249  and  _251
REMARK  107  A    between atoms: _251  and  _252
REMARK  108  A    between atoms: _251  and  _254
REMARK  109  A    between atoms: _254  and  _255
REMARK  110  A    between atoms: _260  and  _261
REMARK  111  A    between atoms: _263  and  _265
REMARK  112  A    between atoms: _265  and  _266
REMARK  113  A    between atoms: _265  and  _268
REMARK  114  A    between atoms: _271  and  _273
REMARK  115  A    between atoms: _273  and  _274
REMARK  116  A    between atoms: _277  and  _279
REMARK  117  A    between atoms: _279  and  _280
REMARK  118  A    between atoms: _279  and  _282
REMARK  119  A    between atoms: _282  and  _283
REMARK  120  A    between atoms: _288  and  _289
REMARK  121  A    between atoms: _291  and  _293
REMARK  122  A    between atoms: _293  and  _294
REMARK  123  A    between atoms: _293  and  _296
REMARK  124  A    between atoms: _296  and  _297
REMARK                            x       y       z     vdW  Elec       q    Type
REMARK                         _______ _______ _______ _____ _____    ______ ____
ROOT
ATOM      1  O   HOH     1       1.481 -23.062 -30.783  0.00  0.00    +0.000 OA
ENDROOT
TORSDOF 0
REMARK  Name = ../refined-set-2016/4msa/4msa_pocket.pdb
REMARK  124 active torsions:
REMARK  status: ('A' for Active; 'I' for Inactive)
REMARK    1  A    between atoms: _1  and  _3
REMARK    2  A    between atoms: _3  and  _4
REMARK    3  A    between atoms: _3  and  _6
REMARK    4  A    between atoms: _6  and  _7
REMARK    5  A    between atoms: _12  and  _13
REMARK    6  A    between atoms: _15  and  _17
REMARK    7  A    between atoms: _17  and  _18
REMARK    8  A    between atoms: _17  and  _20
REMARK    9  A    between atoms: _20  and  _21
REMARK   10  A    between atoms: _26  and  _28
REMARK   11  A    between atoms: _28  and  _29
REMARK   12  A    between atoms: _28  and  _31
REMARK   13  A    between atoms: _31  and  _32
REMARK   14  A    between atoms: _36  and  NI_307
REMARK   15  A    between atoms: _37  and  _39
REMARK   16  A    between atoms: _39  and  _40
REMARK   17  A    between atoms: _39  and  _42
REMARK   18  A    between atoms: _45  and  _47
REMARK   19  A    between atoms: _47  and  _48
REMARK   20  A    between atoms: _47  and  _50
REMARK   21  A    between atoms: _50  and  _51
REMARK   22  A    between atoms: _54  and  _56
REMARK   23  A    between atoms: _56  and  _57
REMARK   24  A    between atoms: _56  and  _59
REMARK   25  A    between atoms: _59  and  _60
REMARK   26  A    between atoms: _63  and  _65
REMARK   27  A    between atoms: _65  and  _66
REMARK   28  A    between atoms: _69  and  _71
REMARK   29  A    between atoms: _71  and  _72
REMARK   30  A    between atoms: _71  and  _74
REMARK   31  A    between atoms: _76  and  _78
REMARK   32  A    between atoms: _78  and  _79
REMARK   33  A    between atoms: _78  and  _81
REMARK   34  A    between atoms: _81  and  _82
REMARK   35  A    between atoms: _82  and  _84
REMARK   36  A    between atoms: _84  and  NI_307
REMARK   37  A    between atoms: _85  and  _87
REMARK   38  A    between atoms: _87  and  _88
REMARK   39  A    between atoms: _87  and  _90
REMARK   40  A    between atoms: _90  and  _91
REMARK   41  A    between atoms: _94  and  _96
REMARK   42  A    between atoms: _96  and  _97
REMARK   43  A    between atoms: _96  and  _99
REMARK   44  A    between atoms: _101  and  _103
REMARK   45  A    between atoms: _103  and  _104
REMARK   46  A    between atoms: _103  and  _106
REMARK   47  A    between atoms: _106  and  _107
REMARK   48  A    between atoms: _109  and  _111
REMARK   49  A    between atoms: _111  and  _112
REMARK   50  A    between atoms: _111  and  _114
REMARK   51  A    between atoms: _117  and  _119
REMARK   52  A    between atoms: _119  and  _120
REMARK   53  A    between atoms: _119  and  _122
REMARK   54  A    between atoms: _122  and  _123
REMARK   55  A    between atoms: _126  and  _128
REMARK   56  A    between atoms: _128  and  _129
REMARK   57  A    between atoms: _128  and  _131
REMARK   58  A    between atoms: _131  and  _132
REMARK   59  A    between atoms: _132  and  _133
REMARK   60  A    between atoms: _133  and  _134
REMARK   61  A    between atoms: _134  and  _135
REMARK   62  A    between atoms: _139  and  _141
REMARK   63  A    between atoms: _141  and  _142
REMARK   64  A    between atoms: _141  and  _144
REMARK   65  A    between atoms: _144  and  _145
REMARK   66  A    between atoms: _148  and  _150
REMARK   67  A    between atoms: _150  and  _151
REMARK   68  A    between atoms: _150  and  _153
REMARK   69  A    between atoms: _153  and  _154
REMARK   70  A    between atoms: _157  and  _159
REMARK   71  A    between atoms: _159  and  _160
REMARK   72  A    between atoms: _163  and  _165
REMARK   73  A    between atoms: _165  and  _166
REMARK   74  A    between atoms: _165  and  _168
REMARK   75  A    between atoms: _168  and  _169
REMARK   76  A    between atoms: _172  and  _174
REMARK   77  A    between atoms: _174  and  _175
REMARK   78  A    between atoms: _174  and  _177
REMARK   79  A    between atoms: _177  and  _178
REMARK   80  A    between atoms: _183  and  _184
REMARK   81  A    between atoms: _186  and  _188
REMARK   82  A    between atoms: _188  and  _189
REMARK   83  A    between atoms: _188  and  _191
REMARK   84  A    between atoms: _191  and  _192
REMARK   85  A    between atoms: _198  and  _200
REMARK   86  A    between atoms: _200  and  _201
REMARK   87  A    between atoms: _200  and  _203
REMARK   88  A    between atoms: _203  and  _204
REMARK   89  A    between atoms: _204  and  _205
REMARK   90  A    between atoms: _207  and  _209
REMARK   91  A    between atoms: _209  and  _210
REMARK   92  A    between atoms: _209  and  _212
REMARK   93  A    between atoms: _215  and  _217
REMARK   94  A    between atoms: _217  and  _218
REMARK   95  A    between atoms: _220  and  _222
REMARK   96  A    between atoms: _222  and  _223
REMARK   97  A    between atoms: _222  and  _225
REMARK   98  A    between atoms: _225  and  _226
REMARK   99  A    between atoms: _226  and  _227
REMARK  100  A    between atoms: _232  and  _234
REMARK  101  A    between atoms: _234  and  _235
REMARK  102  A    between atoms: _237  and  _239
REMARK  103  A    between atoms: _239  and  _240
REMARK  104  A    between atoms: _239  and  _242
REMARK  105  A    between atoms: _242  and  _243
REMARK  106  A    between atoms: _249  and  _251
REMARK  107  A    between atoms: _251  and  _252
REMARK  108  A    between atoms: _251  and  _254
REMARK  109  A    between atoms: _254  and  _255
REMARK  110  A    between atoms: _260  and  _261
REMARK  111  A    between atoms: _263  and  _265
REMARK  112  A    between atoms: _265  and  _266
REMARK  113  A    between atoms: _265  and  _268
REMARK  114  A    between atoms: _271  and  _273
REMARK  115  A    between atoms: _273  and  _274
REMARK  116  A    between atoms: _277  and  _279
REMARK  117  A    between atoms: _279  and  _280
REMARK  118  A    between atoms: _279  and  _282
REMARK  119  A    between atoms: _282  and  _283
REMARK  120  A    between atoms: _288  and  _289
REMARK  121  A    between atoms: _291  and  _293
REMARK  122  A    between atoms: _293  and  _294
REMARK  123  A    between atoms: _293  and  _296
REMARK  124  A    between atoms: _296  and  _297
REMARK                            x       y       z     vdW  Elec       q    Type
REMARK                         _______ _______ _______ _____ _____    ______ ____
ROOT
ATOM      1  O   HOH     1       3.733 -21.650 -40.970  0.00  0.00    +0.000 OA
ENDROOT
TORSDOF 0
REMARK  Name = ../refined-set-2016/4msa/4msa_pocket.pdb
REMARK  124 active torsions:
REMARK  status: ('A' for Active; 'I' for Inactive)
REMARK    1  A    between atoms: _1  and  _3
REMARK    2  A    between atoms: _3  and  _4
REMARK    3  A    between atoms: _3  and  _6
REMARK    4  A    between atoms: _6  and  _7
REMARK    5  A    between atoms: _12  and  _13
REMARK    6  A    between atoms: _15  and  _17
REMARK    7  A    between atoms: _17  and  _18
REMARK    8  A    between atoms: _17  and  _20
REMARK    9  A    between atoms: _20  and  _21
REMARK   10  A    between atoms: _26  and  _28
REMARK   11  A    between atoms: _28  and  _29
REMARK   12  A    between atoms: _28  and  _31
REMARK   13  A    between atoms: _31  and  _32
REMARK   14  A    between atoms: _36  and  NI_307
REMARK   15  A    between atoms: _37  and  _39
REMARK   16  A    between atoms: _39  and  _40
REMARK   17  A    between atoms: _39  and  _42
REMARK   18  A    between atoms: _45  and  _47
REMARK   19  A    between atoms: _47  and  _48
REMARK   20  A    between atoms: _47  and  _50
REMARK   21  A    between atoms: _50  and  _51
REMARK   22  A    between atoms: _54  and  _56
REMARK   23  A    between atoms: _56  and  _57
REMARK   24  A    between atoms: _56  and  _59
REMARK   25  A    between atoms: _59  and  _60
REMARK   26  A    between atoms: _63  and  _65
REMARK   27  A    between atoms: _65  and  _66
REMARK   28  A    between atoms: _69  and  _71
REMARK   29  A    between atoms: _71  and  _72
REMARK   30  A    between atoms: _71  and  _74
REMARK   31  A    between atoms: _76  and  _78
REMARK   32  A    between atoms: _78  and  _79
REMARK   33  A    between atoms: _78  and  _81
REMARK   34  A    between atoms: _81  and  _82
REMARK   35  A    between atoms: _82  and  _84
REMARK   36  A    between atoms: _84  and  NI_307
REMARK   37  A    between atoms: _85  and  _87
REMARK   38  A    between atoms: _87  and  _88
REMARK   39  A    between atoms: _87  and  _90
REMARK   40  A    between atoms: _90  and  _91
REMARK   41  A    between atoms: _94  and  _96
REMARK   42  A    between atoms: _96  and  _97
REMARK   43  A    between atoms: _96  and  _99
REMARK   44  A    between atoms: _101  and  _103
REMARK   45  A    between atoms: _103  and  _104
REMARK   46  A    between atoms: _103  and  _106
REMARK   47  A    between atoms: _106  and  _107
REMARK   48  A    between atoms: _109  and  _111
REMARK   49  A    between atoms: _111  and  _112
REMARK   50  A    between atoms: _111  and  _114
REMARK   51  A    between atoms: _117  and  _119
REMARK   52  A    between atoms: _119  and  _120
REMARK   53  A    between atoms: _119  and  _122
REMARK   54  A    between atoms: _122  and  _123
REMARK   55  A    between atoms: _126  and  _128
REMARK   56  A    between atoms: _128  and  _129
REMARK   57  A    between atoms: _128  and  _131
REMARK   58  A    between atoms: _131  and  _132
REMARK   59  A    between atoms: _132  and  _133
REMARK   60  A    between atoms: _133  and  _134
REMARK   61  A    between atoms: _134  and  _135
REMARK   62  A    between atoms: _139  and  _141
REMARK   63  A    between atoms: _141  and  _142
REMARK   64  A    between atoms: _141  and  _144
REMARK   65  A    between atoms: _144  and  _145
REMARK   66  A    between atoms: _148  and  _150
REMARK   67  A    between atoms: _150  and  _151
REMARK   68  A    between atoms: _150  and  _153
REMARK   69  A    between atoms: _153  and  _154
REMARK   70  A    between atoms: _157  and  _159
REMARK   71  A    between atoms: _159  and  _160
REMARK   72  A    between atoms: _163  and  _165
REMARK   73  A    between atoms: _165  and  _166
REMARK   74  A    between atoms: _165  and  _168
REMARK   75  A    between atoms: _168  and  _169
REMARK   76  A    between atoms: _172  and  _174
REMARK   77  A    between atoms: _174  and  _175
REMARK   78  A    between atoms: _174  and  _177
REMARK   79  A    between atoms: _177  and  _178
REMARK   80  A    between atoms: _183  and  _184
REMARK   81  A    between atoms: _186  and  _188
REMARK   82  A    between atoms: _188  and  _189
REMARK   83  A    between atoms: _188  and  _191
REMARK   84  A    between atoms: _191  and  _192
REMARK   85  A    between atoms: _198  and  _200
REMARK   86  A    between atoms: _200  and  _201
REMARK   87  A    between atoms: _200  and  _203
REMARK   88  A    between atoms: _203  and  _204
REMARK   89  A    between atoms: _204  and  _205
REMARK   90  A    between atoms: _207  and  _209
REMARK   91  A    between atoms: _209  and  _210
REMARK   92  A    between atoms: _209  and  _212
REMARK   93  A    between atoms: _215  and  _217
REMARK   94  A    between atoms: _217  and  _218
REMARK   95  A    between atoms: _220  and  _222
REMARK   96  A    between atoms: _222  and  _223
REMARK   97  A    between atoms: _222  and  _225
REMARK   98  A    between atoms: _225  and  _226
REMARK   99  A    between atoms: _226  and  _227
REMARK  100  A    between atoms: _232  and  _234
REMARK  101  A    between atoms: _234  and  _235
REMARK  102  A    between atoms: _237  and  _239
REMARK  103  A    between atoms: _239  and  _240
REMARK  104  A    between atoms: _239  and  _242
REMARK  105  A    between atoms: _242  and  _243
REMARK  106  A    between atoms: _249  and  _251
REMARK  107  A    between atoms: _251  and  _252
REMARK  108  A    between atoms: _251  and  _254
REMARK  109  A    between atoms: _254  and  _255
REMARK  110  A    between atoms: _260  and  _261
REMARK  111  A    between atoms: _263  and  _265
REMARK  112  A    between atoms: _265  and  _266
REMARK  113  A    between atoms: _265  and  _268
REMARK  114  A    between atoms: _271  and  _273
REMARK  115  A    between atoms: _273  and  _274
REMARK  116  A    between atoms: _277  and  _279
REMARK  117  A    between atoms: _279  and  _280
REMARK  118  A    between atoms: _279  and  _282
REMARK  119  A    between atoms: _282  and  _283
REMARK  120  A    between atoms: _288  and  _289
REMARK  121  A    between atoms: _291  and  _293
REMARK  122  A    between atoms: _293  and  _294
REMARK  123  A    between atoms: _293  and  _296
REMARK  124  A    between atoms: _296  and  _297
REMARK                            x       y       z     vdW  Elec       q    Type
REMARK                         _______ _______ _______ _____ _____    ______ ____
ROOT
ATOM      1  O   HOH     1      10.450 -27.151 -25.265  0.00  0.00    +0.000 OA
ENDROOT
TORSDOF 0
REMARK  Name = ../refined-set-2016/4msa/4msa_pocket.pdb
REMARK  124 active torsions:
REMARK  status: ('A' for Active; 'I' for Inactive)
REMARK    1  A    between atoms: _1  and  _3
REMARK    2  A    between atoms: _3  and  _4
REMARK    3  A    between atoms: _3  and  _6
REMARK    4  A    between atoms: _6  and  _7
REMARK    5  A    between atoms: _12  and  _13
REMARK    6  A    between atoms: _15  and  _17
REMARK    7  A    between atoms: _17  and  _18
REMARK    8  A    between atoms: _17  and  _20
REMARK    9  A    between atoms: _20  and  _21
REMARK   10  A    between atoms: _26  and  _28
REMARK   11  A    between atoms: _28  and  _29
REMARK   12  A    between atoms: _28  and  _31
REMARK   13  A    between atoms: _31  and  _32
REMARK   14  A    between atoms: _36  and  NI_307
REMARK   15  A    between atoms: _37  and  _39
REMARK   16  A    between atoms: _39  and  _40
REMARK   17  A    between atoms: _39  and  _42
REMARK   18  A    between atoms: _45  and  _47
REMARK   19  A    between atoms: _47  and  _48
REMARK   20  A    between atoms: _47  and  _50
REMARK   21  A    between atoms: _50  and  _51
REMARK   22  A    between atoms: _54  and  _56
REMARK   23  A    between atoms: _56  and  _57
REMARK   24  A    between atoms: _56  and  _59
REMARK   25  A    between atoms: _59  and  _60
REMARK   26  A    between atoms: _63  and  _65
REMARK   27  A    between atoms: _65  and  _66
REMARK   28  A    between atoms: _69  and  _71
REMARK   29  A    between atoms: _71  and  _72
REMARK   30  A    between atoms: _71  and  _74
REMARK   31  A    between atoms: _76  and  _78
REMARK   32  A    between atoms: _78  and  _79
REMARK   33  A    between atoms: _78  and  _81
REMARK   34  A    between atoms: _81  and  _82
REMARK   35  A    between atoms: _82  and  _84
REMARK   36  A    between atoms: _84  and  NI_307
REMARK   37  A    between atoms: _85  and  _87
REMARK   38  A    between atoms: _87  and  _88
REMARK   39  A    between atoms: _87  and  _90
REMARK   40  A    between atoms: _90  and  _91
REMARK   41  A    between atoms: _94  and  _96
REMARK   42  A    between atoms: _96  and  _97
REMARK   43  A    between atoms: _96  and  _99
REMARK   44  A    between atoms: _101  and  _103
REMARK   45  A    between atoms: _103  and  _104
REMARK   46  A    between atoms: _103  and  _106
REMARK   47  A    between atoms: _106  and  _107
REMARK   48  A    between atoms: _109  and  _111
REMARK   49  A    between atoms: _111  and  _112
REMARK   50  A    between atoms: _111  and  _114
REMARK   51  A    between atoms: _117  and  _119
REMARK   52  A    between atoms: _119  and  _120
REMARK   53  A    between atoms: _119  and  _122
REMARK   54  A    between atoms: _122  and  _123
REMARK   55  A    between atoms: _126  and  _128
REMARK   56  A    between atoms: _128  and  _129
REMARK   57  A    between atoms: _128  and  _131
REMARK   58  A    between atoms: _131  and  _132
REMARK   59  A    between atoms: _132  and  _133
REMARK   60  A    between atoms: _133  and  _134
REMARK   61  A    between atoms: _134  and  _135
REMARK   62  A    between atoms: _139  and  _141
REMARK   63  A    between atoms: _141  and  _142
REMARK   64  A    between atoms: _141  and  _144
REMARK   65  A    between atoms: _144  and  _145
REMARK   66  A    between atoms: _148  and  _150
REMARK   67  A    between atoms: _150  and  _151
REMARK   68  A    between atoms: _150  and  _153
REMARK   69  A    between atoms: _153  and  _154
REMARK   70  A    between atoms: _157  and  _159
REMARK   71  A    between atoms: _159  and  _160
REMARK   72  A    between atoms: _163  and  _165
REMARK   73  A    between atoms: _165  and  _166
REMARK   74  A    between atoms: _165  and  _168
REMARK   75  A    between atoms: _168  and  _169
REMARK   76  A    between atoms: _172  and  _174
REMARK   77  A    between atoms: _174  and  _175
REMARK   78  A    between atoms: _174  and  _177
REMARK   79  A    between atoms: _177  and  _178
REMARK   80  A    between atoms: _183  and  _184
REMARK   81  A    between atoms: _186  and  _188
REMARK   82  A    between atoms: _188  and  _189
REMARK   83  A    between atoms: _188  and  _191
REMARK   84  A    between atoms: _191  and  _192
REMARK   85  A    between atoms: _198  and  _200
REMARK   86  A    between atoms: _200  and  _201
REMARK   87  A    between atoms: _200  and  _203
REMARK   88  A    between atoms: _203  and  _204
REMARK   89  A    between atoms: _204  and  _205
REMARK   90  A    between atoms: _207  and  _209
REMARK   91  A    between atoms: _209  and  _210
REMARK   92  A    between atoms: _209  and  _212
REMARK   93  A    between atoms: _215  and  _217
REMARK   94  A    between atoms: _217  and  _218
REMARK   95  A    between atoms: _220  and  _222
REMARK   96  A    between atoms: _222  and  _223
REMARK   97  A    between atoms: _222  and  _225
REMARK   98  A    between atoms: _225  and  _226
REMARK   99  A    between atoms: _226  and  _227
REMARK  100  A    between atoms: _232  and  _234
REMARK  101  A    between atoms: _234  and  _235
REMARK  102  A    between atoms: _237  and  _239
REMARK  103  A    between atoms: _239  and  _240
REMARK  104  A    between atoms: _239  and  _242
REMARK  105  A    between atoms: _242  and  _243
REMARK  106  A    between atoms: _249  and  _251
REMARK  107  A    between atoms: _251  and  _252
REMARK  108  A    between atoms: _251  and  _254
REMARK  109  A    between atoms: _254  and  _255
REMARK  110  A    between atoms: _260  and  _261
REMARK  111  A    between atoms: _263  and  _265
REMARK  112  A    between atoms: _265  and  _266
REMARK  113  A    between atoms: _265  and  _268
REMARK  114  A    between atoms: _271  and  _273
REMARK  115  A    between atoms: _273  and  _274
REMARK  116  A    between atoms: _277  and  _279
REMARK  117  A    between atoms: _279  and  _280
REMARK  118  A    between atoms: _279  and  _282
REMARK  119  A    between atoms: _282  and  _283
REMARK  120  A    between atoms: _288  and  _289
REMARK  121  A    between atoms: _291  and  _293
REMARK  122  A    between atoms: _293  and  _294
REMARK  123  A    between atoms: _293  and  _296
REMARK  124  A    between atoms: _296  and  _297
REMARK                            x       y       z     vdW  Elec       q    Type
REMARK                         _______ _______ _______ _____ _____    ______ ____
ROOT
ATOM      1  O   HOH     1       8.214 -29.044 -25.816  0.00  0.00    +0.000 OA
ENDROOT
TORSDOF 0
REMARK  Name = ../refined-set-2016/4msa/4msa_pocket.pdb
REMARK  124 active torsions:
REMARK  status: ('A' for Active; 'I' for Inactive)
REMARK    1  A    between atoms: _1  and  _3
REMARK    2  A    between atoms: _3  and  _4
REMARK    3  A    between atoms: _3  and  _6
REMARK    4  A    between atoms: _6  and  _7
REMARK    5  A    between atoms: _12  and  _13
REMARK    6  A    between atoms: _15  and  _17
REMARK    7  A    between atoms: _17  and  _18
REMARK    8  A    between atoms: _17  and  _20
REMARK    9  A    between atoms: _20  and  _21
REMARK   10  A    between atoms: _26  and  _28
REMARK   11  A    between atoms: _28  and  _29
REMARK   12  A    between atoms: _28  and  _31
REMARK   13  A    between atoms: _31  and  _32
REMARK   14  A    between atoms: _36  and  NI_307
REMARK   15  A    between atoms: _37  and  _39
REMARK   16  A    between atoms: _39  and  _40
REMARK   17  A    between atoms: _39  and  _42
REMARK   18  A    between atoms: _45  and  _47
REMARK   19  A    between atoms: _47  and  _48
REMARK   20  A    between atoms: _47  and  _50
REMARK   21  A    between atoms: _50  and  _51
REMARK   22  A    between atoms: _54  and  _56
REMARK   23  A    between atoms: _56  and  _57
REMARK   24  A    between atoms: _56  and  _59
REMARK   25  A    between atoms: _59  and  _60
REMARK   26  A    between atoms: _63  and  _65
REMARK   27  A    between atoms: _65  and  _66
REMARK   28  A    between atoms: _69  and  _71
REMARK   29  A    between atoms: _71  and  _72
REMARK   30  A    between atoms: _71  and  _74
REMARK   31  A    between atoms: _76  and  _78
REMARK   32  A    between atoms: _78  and  _79
REMARK   33  A    between atoms: _78  and  _81
REMARK   34  A    between atoms: _81  and  _82
REMARK   35  A    between atoms: _82  and  _84
REMARK   36  A    between atoms: _84  and  NI_307
REMARK   37  A    between atoms: _85  and  _87
REMARK   38  A    between atoms: _87  and  _88
REMARK   39  A    between atoms: _87  and  _90
REMARK   40  A    between atoms: _90  and  _91
REMARK   41  A    between atoms: _94  and  _96
REMARK   42  A    between atoms: _96  and  _97
REMARK   43  A    between atoms: _96  and  _99
REMARK   44  A    between atoms: _101  and  _103
REMARK   45  A    between atoms: _103  and  _104
REMARK   46  A    between atoms: _103  and  _106
REMARK   47  A    between atoms: _106  and  _107
REMARK   48  A    between atoms: _109  and  _111
REMARK   49  A    between atoms: _111  and  _112
REMARK   50  A    between atoms: _111  and  _114
REMARK   51  A    between atoms: _117  and  _119
REMARK   52  A    between atoms: _119  and  _120
REMARK   53  A    between atoms: _119  and  _122
REMARK   54  A    between atoms: _122  and  _123
REMARK   55  A    between atoms: _126  and  _128
REMARK   56  A    between atoms: _128  and  _129
REMARK   57  A    between atoms: _128  and  _131
REMARK   58  A    between atoms: _131  and  _132
REMARK   59  A    between atoms: _132  and  _133
REMARK   60  A    between atoms: _133  and  _134
REMARK   61  A    between atoms: _134  and  _135
REMARK   62  A    between atoms: _139  and  _141
REMARK   63  A    between atoms: _141  and  _142
REMARK   64  A    between atoms: _141  and  _144
REMARK   65  A    between atoms: _144  and  _145
REMARK   66  A    between atoms: _148  and  _150
REMARK   67  A    between atoms: _150  and  _151
REMARK   68  A    between atoms: _150  and  _153
REMARK   69  A    between atoms: _153  and  _154
REMARK   70  A    between atoms: _157  and  _159
REMARK   71  A    between atoms: _159  and  _160
REMARK   72  A    between atoms: _163  and  _165
REMARK   73  A    between atoms: _165  and  _166
REMARK   74  A    between atoms: _165  and  _168
REMARK   75  A    between atoms: _168  and  _169
REMARK   76  A    between atoms: _172  and  _174
REMARK   77  A    between atoms: _174  and  _175
REMARK   78  A    between atoms: _174  and  _177
REMARK   79  A    between atoms: _177  and  _178
REMARK   80  A    between atoms: _183  and  _184
REMARK   81  A    between atoms: _186  and  _188
REMARK   82  A    between atoms: _188  and  _189
REMARK   83  A    between atoms: _188  and  _191
REMARK   84  A    between atoms: _191  and  _192
REMARK   85  A    between atoms: _198  and  _200
REMARK   86  A    between atoms: _200  and  _201
REMARK   87  A    between atoms: _200  and  _203
REMARK   88  A    between atoms: _203  and  _204
REMARK   89  A    between atoms: _204  and  _205
REMARK   90  A    between atoms: _207  and  _209
REMARK   91  A    between atoms: _209  and  _210
REMARK   92  A    between atoms: _209  and  _212
REMARK   93  A    between atoms: _215  and  _217
REMARK   94  A    between atoms: _217  and  _218
REMARK   95  A    between atoms: _220  and  _222
REMARK   96  A    between atoms: _222  and  _223
REMARK   97  A    between atoms: _222  and  _225
REMARK   98  A    between atoms: _225  and  _226
REMARK   99  A    between atoms: _226  and  _227
REMARK  100  A    between atoms: _232  and  _234
REMARK  101  A    between atoms: _234  and  _235
REMARK  102  A    between atoms: _237  and  _239
REMARK  103  A    between atoms: _239  and  _240
REMARK  104  A    between atoms: _239  and  _242
REMARK  105  A    between atoms: _242  and  _243
REMARK  106  A    between atoms: _249  and  _251
REMARK  107  A    between atoms: _251  and  _252
REMARK  108  A    between atoms: _251  and  _254
REMARK  109  A    between atoms: _254  and  _255
REMARK  110  A    between atoms: _260  and  _261
REMARK  111  A    between atoms: _263  and  _265
REMARK  112  A    between atoms: _265  and  _266
REMARK  113  A    between atoms: _265  and  _268
REMARK  114  A    between atoms: _271  and  _273
REMARK  115  A    between atoms: _273  and  _274
REMARK  116  A    between atoms: _277  and  _279
REMARK  117  A    between atoms: _279  and  _280
REMARK  118  A    between atoms: _279  and  _282
REMARK  119  A    between atoms: _282  and  _283
REMARK  120  A    between atoms: _288  and  _289
REMARK  121  A    between atoms: _291  and  _293
REMARK  122  A    between atoms: _293  and  _294
REMARK  123  A    between atoms: _293  and  _296
REMARK  124  A    between atoms: _296  and  _297
REMARK                            x       y       z     vdW  Elec       q    Type
REMARK                         _______ _______ _______ _____ _____    ______ ____
ROOT
ATOM      1  O   HOH     1       3.851 -23.884 -29.274  0.00  0.00    +0.000 OA
ENDROOT
TORSDOF 0
REMARK  Name = ../refined-set-2016/4msa/4msa_pocket.pdb
REMARK  124 active torsions:
REMARK  status: ('A' for Active; 'I' for Inactive)
REMARK    1  A    between atoms: _1  and  _3
REMARK    2  A    between atoms: _3  and  _4
REMARK    3  A    between atoms: _3  and  _6
REMARK    4  A    between atoms: _6  and  _7
REMARK    5  A    between atoms: _12  and  _13
REMARK    6  A    between atoms: _15  and  _17
REMARK    7  A    between atoms: _17  and  _18
REMARK    8  A    between atoms: _17  and  _20
REMARK    9  A    between atoms: _20  and  _21
REMARK   10  A    between atoms: _26  and  _28
REMARK   11  A    between atoms: _28  and  _29
REMARK   12  A    between atoms: _28  and  _31
REMARK   13  A    between atoms: _31  and  _32
REMARK   14  A    between atoms: _36  and  NI_307
REMARK   15  A    between atoms: _37  and  _39
REMARK   16  A    between atoms: _39  and  _40
REMARK   17  A    between atoms: _39  and  _42
REMARK   18  A    between atoms: _45  and  _47
REMARK   19  A    between atoms: _47  and  _48
REMARK   20  A    between atoms: _47  and  _50
REMARK   21  A    between atoms: _50  and  _51
REMARK   22  A    between atoms: _54  and  _56
REMARK   23  A    between atoms: _56  and  _57
REMARK   24  A    between atoms: _56  and  _59
REMARK   25  A    between atoms: _59  and  _60
REMARK   26  A    between atoms: _63  and  _65
REMARK   27  A    between atoms: _65  and  _66
REMARK   28  A    between atoms: _69  and  _71
REMARK   29  A    between atoms: _71  and  _72
REMARK   30  A    between atoms: _71  and  _74
REMARK   31  A    between atoms: _76  and  _78
REMARK   32  A    between atoms: _78  and  _79
REMARK   33  A    between atoms: _78  and  _81
REMARK   34  A    between atoms: _81  and  _82
REMARK   35  A    between atoms: _82  and  _84
REMARK   36  A    between atoms: _84  and  NI_307
REMARK   37  A    between atoms: _85  and  _87
REMARK   38  A    between atoms: _87  and  _88
REMARK   39  A    between atoms: _87  and  _90
REMARK   40  A    between atoms: _90  and  _91
REMARK   41  A    between atoms: _94  and  _96
REMARK   42  A    between atoms: _96  and  _97
REMARK   43  A    between atoms: _96  and  _99
REMARK   44  A    between atoms: _101  and  _103
REMARK   45  A    between atoms: _103  and  _104
REMARK   46  A    between atoms: _103  and  _106
REMARK   47  A    between atoms: _106  and  _107
REMARK   48  A    between atoms: _109  and  _111
REMARK   49  A    between atoms: _111  and  _112
REMARK   50  A    between atoms: _111  and  _114
REMARK   51  A    between atoms: _117  and  _119
REMARK   52  A    between atoms: _119  and  _120
REMARK   53  A    between atoms: _119  and  _122
REMARK   54  A    between atoms: _122  and  _123
REMARK   55  A    between atoms: _126  and  _128
REMARK   56  A    between atoms: _128  and  _129
REMARK   57  A    between atoms: _128  and  _131
REMARK   58  A    between atoms: _131  and  _132
REMARK   59  A    between atoms: _132  and  _133
REMARK   60  A    between atoms: _133  and  _134
REMARK   61  A    between atoms: _134  and  _135
REMARK   62  A    between atoms: _139  and  _141
REMARK   63  A    between atoms: _141  and  _142
REMARK   64  A    between atoms: _141  and  _144
REMARK   65  A    between atoms: _144  and  _145
REMARK   66  A    between atoms: _148  and  _150
REMARK   67  A    between atoms: _150  and  _151
REMARK   68  A    between atoms: _150  and  _153
REMARK   69  A    between atoms: _153  and  _154
REMARK   70  A    between atoms: _157  and  _159
REMARK   71  A    between atoms: _159  and  _160
REMARK   72  A    between atoms: _163  and  _165
REMARK   73  A    between atoms: _165  and  _166
REMARK   74  A    between atoms: _165  and  _168
REMARK   75  A    between atoms: _168  and  _169
REMARK   76  A    between atoms: _172  and  _174
REMARK   77  A    between atoms: _174  and  _175
REMARK   78  A    between atoms: _174  and  _177
REMARK   79  A    between atoms: _177  and  _178
REMARK   80  A    between atoms: _183  and  _184
REMARK   81  A    between atoms: _186  and  _188
REMARK   82  A    between atoms: _188  and  _189
REMARK   83  A    between atoms: _188  and  _191
REMARK   84  A    between atoms: _191  and  _192
REMARK   85  A    between atoms: _198  and  _200
REMARK   86  A    between atoms: _200  and  _201
REMARK   87  A    between atoms: _200  and  _203
REMARK   88  A    between atoms: _203  and  _204
REMARK   89  A    between atoms: _204  and  _205
REMARK   90  A    between atoms: _207  and  _209
REMARK   91  A    between atoms: _209  and  _210
REMARK   92  A    between atoms: _209  and  _212
REMARK   93  A    between atoms: _215  and  _217
REMARK   94  A    between atoms: _217  and  _218
REMARK   95  A    between atoms: _220  and  _222
REMARK   96  A    between atoms: _222  and  _223
REMARK   97  A    between atoms: _222  and  _225
REMARK   98  A    between atoms: _225  and  _226
REMARK   99  A    between atoms: _226  and  _227
REMARK  100  A    between atoms: _232  and  _234
REMARK  101  A    between atoms: _234  and  _235
REMARK  102  A    between atoms: _237  and  _239
REMARK  103  A    between atoms: _239  and  _240
REMARK  104  A    between atoms: _239  and  _242
REMARK  105  A    between atoms: _242  and  _243
REMARK  106  A    between atoms: _249  and  _251
REMARK  107  A    between atoms: _251  and  _252
REMARK  108  A    between atoms: _251  and  _254
REMARK  109  A    between atoms: _254  and  _255
REMARK  110  A    between atoms: _260  and  _261
REMARK  111  A    between atoms: _263  and  _265
REMARK  112  A    between atoms: _265  and  _266
REMARK  113  A    between atoms: _265  and  _268
REMARK  114  A    between atoms: _271  and  _273
REMARK  115  A    between atoms: _273  and  _274
REMARK  116  A    between atoms: _277  and  _279
REMARK  117  A    between atoms: _279  and  _280
REMARK  118  A    between atoms: _279  and  _282
REMARK  119  A    between atoms: _282  and  _283
REMARK  120  A    between atoms: _288  and  _289
REMARK  121  A    between atoms: _291  and  _293
REMARK  122  A    between atoms: _293  and  _294
REMARK  123  A    between atoms: _293  and  _296
REMARK  124  A    between atoms: _296  and  _297
REMARK                            x       y       z     vdW  Elec       q    Type
REMARK                         _______ _______ _______ _____ _____    ______ ____
ROOT
ATOM      1  O   HOH     1       6.923 -31.659 -30.379  0.00  0.00    +0.000 OA
ENDROOT
TORSDOF 0
REMARK  Name = ../refined-set-2016/4msa/4msa_pocket.pdb
REMARK  124 active torsions:
REMARK  status: ('A' for Active; 'I' for Inactive)
REMARK    1  A    between atoms: _1  and  _3
REMARK    2  A    between atoms: _3  and  _4
REMARK    3  A    between atoms: _3  and  _6
REMARK    4  A    between atoms: _6  and  _7
REMARK    5  A    between atoms: _12  and  _13
REMARK    6  A    between atoms: _15  and  _17
REMARK    7  A    between atoms: _17  and  _18
REMARK    8  A    between atoms: _17  and  _20
REMARK    9  A    between atoms: _20  and  _21
REMARK   10  A    between atoms: _26  and  _28
REMARK   11  A    between atoms: _28  and  _29
REMARK   12  A    between atoms: _28  and  _31
REMARK   13  A    between atoms: _31  and  _32
REMARK   14  A    between atoms: _36  and  NI_307
REMARK   15  A    between atoms: _37  and  _39
REMARK   16  A    between atoms: _39  and  _40
REMARK   17  A    between atoms: _39  and  _42
REMARK   18  A    between atoms: _45  and  _47
REMARK   19  A    between atoms: _47  and  _48
REMARK   20  A    between atoms: _47  and  _50
REMARK   21  A    between atoms: _50  and  _51
REMARK   22  A    between atoms: _54  and  _56
REMARK   23  A    between atoms: _56  and  _57
REMARK   24  A    between atoms: _56  and  _59
REMARK   25  A    between atoms: _59  and  _60
REMARK   26  A    between atoms: _63  and  _65
REMARK   27  A    between atoms: _65  and  _66
REMARK   28  A    between atoms: _69  and  _71
REMARK   29  A    between atoms: _71  and  _72
REMARK   30  A    between atoms: _71  and  _74
REMARK   31  A    between atoms: _76  and  _78
REMARK   32  A    between atoms: _78  and  _79
REMARK   33  A    between atoms: _78  and  _81
REMARK   34  A    between atoms: _81  and  _82
REMARK   35  A    between atoms: _82  and  _84
REMARK   36  A    between atoms: _84  and  NI_307
REMARK   37  A    between atoms: _85  and  _87
REMARK   38  A    between atoms: _87  and  _88
REMARK   39  A    between atoms: _87  and  _90
REMARK   40  A    between atoms: _90  and  _91
REMARK   41  A    between atoms: _94  and  _96
REMARK   42  A    between atoms: _96  and  _97
REMARK   43  A    between atoms: _96  and  _99
REMARK   44  A    between atoms: _101  and  _103
REMARK   45  A    between atoms: _103  and  _104
REMARK   46  A    between atoms: _103  and  _106
REMARK   47  A    between atoms: _106  and  _107
REMARK   48  A    between atoms: _109  and  _111
REMARK   49  A    between atoms: _111  and  _112
REMARK   50  A    between atoms: _111  and  _114
REMARK   51  A    between atoms: _117  and  _119
REMARK   52  A    between atoms: _119  and  _120
REMARK   53  A    between atoms: _119  and  _122
REMARK   54  A    between atoms: _122  and  _123
REMARK   55  A    between atoms: _126  and  _128
REMARK   56  A    between atoms: _128  and  _129
REMARK   57  A    between atoms: _128  and  _131
REMARK   58  A    between atoms: _131  and  _132
REMARK   59  A    between atoms: _132  and  _133
REMARK   60  A    between atoms: _133  and  _134
REMARK   61  A    between atoms: _134  and  _135
REMARK   62  A    between atoms: _139  and  _141
REMARK   63  A    between atoms: _141  and  _142
REMARK   64  A    between atoms: _141  and  _144
REMARK   65  A    between atoms: _144  and  _145
REMARK   66  A    between atoms: _148  and  _150
REMARK   67  A    between atoms: _150  and  _151
REMARK   68  A    between atoms: _150  and  _153
REMARK   69  A    between atoms: _153  and  _154
REMARK   70  A    between atoms: _157  and  _159
REMARK   71  A    between atoms: _159  and  _160
REMARK   72  A    between atoms: _163  and  _165
REMARK   73  A    between atoms: _165  and  _166
REMARK   74  A    between atoms: _165  and  _168
REMARK   75  A    between atoms: _168  and  _169
REMARK   76  A    between atoms: _172  and  _174
REMARK   77  A    between atoms: _174  and  _175
REMARK   78  A    between atoms: _174  and  _177
REMARK   79  A    between atoms: _177  and  _178
REMARK   80  A    between atoms: _183  and  _184
REMARK   81  A    between atoms: _186  and  _188
REMARK   82  A    between atoms: _188  and  _189
REMARK   83  A    between atoms: _188  and  _191
REMARK   84  A    between atoms: _191  and  _192
REMARK   85  A    between atoms: _198  and  _200
REMARK   86  A    between atoms: _200  and  _201
REMARK   87  A    between atoms: _200  and  _203
REMARK   88  A    between atoms: _203  and  _204
REMARK   89  A    between atoms: _204  and  _205
REMARK   90  A    between atoms: _207  and  _209
REMARK   91  A    between atoms: _209  and  _210
REMARK   92  A    between atoms: _209  and  _212
REMARK   93  A    between atoms: _215  and  _217
REMARK   94  A    between atoms: _217  and  _218
REMARK   95  A    between atoms: _220  and  _222
REMARK   96  A    between atoms: _222  and  _223
REMARK   97  A    between atoms: _222  and  _225
REMARK   98  A    between atoms: _225  and  _226
REMARK   99  A    between atoms: _226  and  _227
REMARK  100  A    between atoms: _232  and  _234
REMARK  101  A    between atoms: _234  and  _235
REMARK  102  A    between atoms: _237  and  _239
REMARK  103  A    between atoms: _239  and  _240
REMARK  104  A    between atoms: _239  and  _242
REMARK  105  A    between atoms: _242  and  _243
REMARK  106  A    between atoms: _249  and  _251
REMARK  107  A    between atoms: _251  and  _252
REMARK  108  A    between atoms: _251  and  _254
REMARK  109  A    between atoms: _254  and  _255
REMARK  110  A    between atoms: _260  and  _261
REMARK  111  A    between atoms: _263  and  _265
REMARK  112  A    between atoms: _265  and  _266
REMARK  113  A    between atoms: _265  and  _268
REMARK  114  A    between atoms: _271  and  _273
REMARK  115  A    between atoms: _273  and  _274
REMARK  116  A    between atoms: _277  and  _279
REMARK  117  A    between atoms: _279  and  _280
REMARK  118  A    between atoms: _279  and  _282
REMARK  119  A    between atoms: _282  and  _283
REMARK  120  A    between atoms: _288  and  _289
REMARK  121  A    between atoms: _291  and  _293
REMARK  122  A    between atoms: _293  and  _294
REMARK  123  A    between atoms: _293  and  _296
REMARK  124  A    between atoms: _296  and  _297
REMARK                            x       y       z     vdW  Elec       q    Type
REMARK                         _______ _______ _______ _____ _____    ______ ____
ROOT
ATOM      1  O   HOH     1      11.056 -31.949 -37.265  0.00  0.00    +0.000 OA
ENDROOT
TORSDOF 0
REMARK  Name = ../refined-set-2016/4msa/4msa_pocket.pdb
REMARK  124 active torsions:
REMARK  status: ('A' for Active; 'I' for Inactive)
REMARK    1  A    between atoms: _1  and  _3
REMARK    2  A    between atoms: _3  and  _4
REMARK    3  A    between atoms: _3  and  _6
REMARK    4  A    between atoms: _6  and  _7
REMARK    5  A    between atoms: _12  and  _13
REMARK    6  A    between atoms: _15  and  _17
REMARK    7  A    between atoms: _17  and  _18
REMARK    8  A    between atoms: _17  and  _20
REMARK    9  A    between atoms: _20  and  _21
REMARK   10  A    between atoms: _26  and  _28
REMARK   11  A    between atoms: _28  and  _29
REMARK   12  A    between atoms: _28  and  _31
REMARK   13  A    between atoms: _31  and  _32
REMARK   14  A    between atoms: _36  and  NI_307
REMARK   15  A    between atoms: _37  and  _39
REMARK   16  A    between atoms: _39  and  _40
REMARK   17  A    between atoms: _39  and  _42
REMARK   18  A    between atoms: _45  and  _47
REMARK   19  A    between atoms: _47  and  _48
REMARK   20  A    between atoms: _47  and  _50
REMARK   21  A    between atoms: _50  and  _51
REMARK   22  A    between atoms: _54  and  _56
REMARK   23  A    between atoms: _56  and  _57
REMARK   24  A    between atoms: _56  and  _59
REMARK   25  A    between atoms: _59  and  _60
REMARK   26  A    between atoms: _63  and  _65
REMARK   27  A    between atoms: _65  and  _66
REMARK   28  A    between atoms: _69  and  _71
REMARK   29  A    between atoms: _71  and  _72
REMARK   30  A    between atoms: _71  and  _74
REMARK   31  A    between atoms: _76  and  _78
REMARK   32  A    between atoms: _78  and  _79
REMARK   33  A    between atoms: _78  and  _81
REMARK   34  A    between atoms: _81  and  _82
REMARK   35  A    between atoms: _82  and  _84
REMARK   36  A    between atoms: _84  and  NI_307
REMARK   37  A    between atoms: _85  and  _87
REMARK   38  A    between atoms: _87  and  _88
REMARK   39  A    between atoms: _87  and  _90
REMARK   40  A    between atoms: _90  and  _91
REMARK   41  A    between atoms: _94  and  _96
REMARK   42  A    between atoms: _96  and  _97
REMARK   43  A    between atoms: _96  and  _99
REMARK   44  A    between atoms: _101  and  _103
REMARK   45  A    between atoms: _103  and  _104
REMARK   46  A    between atoms: _103  and  _106
REMARK   47  A    between atoms: _106  and  _107
REMARK   48  A    between atoms: _109  and  _111
REMARK   49  A    between atoms: _111  and  _112
REMARK   50  A    between atoms: _111  and  _114
REMARK   51  A    between atoms: _117  and  _119
REMARK   52  A    between atoms: _119  and  _120
REMARK   53  A    between atoms: _119  and  _122
REMARK   54  A    between atoms: _122  and  _123
REMARK   55  A    between atoms: _126  and  _128
REMARK   56  A    between atoms: _128  and  _129
REMARK   57  A    between atoms: _128  and  _131
REMARK   58  A    between atoms: _131  and  _132
REMARK   59  A    between atoms: _132  and  _133
REMARK   60  A    between atoms: _133  and  _134
REMARK   61  A    between atoms: _134  and  _135
REMARK   62  A    between atoms: _139  and  _141
REMARK   63  A    between atoms: _141  and  _142
REMARK   64  A    between atoms: _141  and  _144
REMARK   65  A    between atoms: _144  and  _145
REMARK   66  A    between atoms: _148  and  _150
REMARK   67  A    between atoms: _150  and  _151
REMARK   68  A    between atoms: _150  and  _153
REMARK   69  A    between atoms: _153  and  _154
REMARK   70  A    between atoms: _157  and  _159
REMARK   71  A    between atoms: _159  and  _160
REMARK   72  A    between atoms: _163  and  _165
REMARK   73  A    between atoms: _165  and  _166
REMARK   74  A    between atoms: _165  and  _168
REMARK   75  A    between atoms: _168  and  _169
REMARK   76  A    between atoms: _172  and  _174
REMARK   77  A    between atoms: _174  and  _175
REMARK   78  A    between atoms: _174  and  _177
REMARK   79  A    between atoms: _177  and  _178
REMARK   80  A    between atoms: _183  and  _184
REMARK   81  A    between atoms: _186  and  _188
REMARK   82  A    between atoms: _188  and  _189
REMARK   83  A    between atoms: _188  and  _191
REMARK   84  A    between atoms: _191  and  _192
REMARK   85  A    between atoms: _198  and  _200
REMARK   86  A    between atoms: _200  and  _201
REMARK   87  A    between atoms: _200  and  _203
REMARK   88  A    between atoms: _203  and  _204
REMARK   89  A    between atoms: _204  and  _205
REMARK   90  A    between atoms: _207  and  _209
REMARK   91  A    between atoms: _209  and  _210
REMARK   92  A    between atoms: _209  and  _212
REMARK   93  A    between atoms: _215  and  _217
REMARK   94  A    between atoms: _217  and  _218
REMARK   95  A    between atoms: _220  and  _222
REMARK   96  A    between atoms: _222  and  _223
REMARK   97  A    between atoms: _222  and  _225
REMARK   98  A    between atoms: _225  and  _226
REMARK   99  A    between atoms: _226  and  _227
REMARK  100  A    between atoms: _232  and  _234
REMARK  101  A    between atoms: _234  and  _235
REMARK  102  A    between atoms: _237  and  _239
REMARK  103  A    between atoms: _239  and  _240
REMARK  104  A    between atoms: _239  and  _242
REMARK  105  A    between atoms: _242  and  _243
REMARK  106  A    between atoms: _249  and  _251
REMARK  107  A    between atoms: _251  and  _252
REMARK  108  A    between atoms: _251  and  _254
REMARK  109  A    between atoms: _254  and  _255
REMARK  110  A    between atoms: _260  and  _261
REMARK  111  A    between atoms: _263  and  _265
REMARK  112  A    between atoms: _265  and  _266
REMARK  113  A    between atoms: _265  and  _268
REMARK  114  A    between atoms: _271  and  _273
REMARK  115  A    between atoms: _273  and  _274
REMARK  116  A    between atoms: _277  and  _279
REMARK  117  A    between atoms: _279  and  _280
REMARK  118  A    between atoms: _279  and  _282
REMARK  119  A    between atoms: _282  and  _283
REMARK  120  A    between atoms: _288  and  _289
REMARK  121  A    between atoms: _291  and  _293
REMARK  122  A    between atoms: _293  and  _294
REMARK  123  A    between atoms: _293  and  _296
REMARK  124  A    between atoms: _296  and  _297
REMARK                            x       y       z     vdW  Elec       q    Type
REMARK                         _______ _______ _______ _____ _____    ______ ____
ROOT
ATOM      1  O   HOH     1      10.120 -34.735 -33.480  0.00  0.00    +0.000 OA
ENDROOT
TORSDOF 0
REMARK  Name = ../refined-set-2016/4msa/4msa_pocket.pdb
REMARK  124 active torsions:
REMARK  status: ('A' for Active; 'I' for Inactive)
REMARK    1  A    between atoms: _1  and  _3
REMARK    2  A    between atoms: _3  and  _4
REMARK    3  A    between atoms: _3  and  _6
REMARK    4  A    between atoms: _6  and  _7
REMARK    5  A    between atoms: _12  and  _13
REMARK    6  A    between atoms: _15  and  _17
REMARK    7  A    between atoms: _17  and  _18
REMARK    8  A    between atoms: _17  and  _20
REMARK    9  A    between atoms: _20  and  _21
REMARK   10  A    between atoms: _26  and  _28
REMARK   11  A    between atoms: _28  and  _29
REMARK   12  A    between atoms: _28  and  _31
REMARK   13  A    between atoms: _31  and  _32
REMARK   14  A    between atoms: _36  and  NI_307
REMARK   15  A    between atoms: _37  and  _39
REMARK   16  A    between atoms: _39  and  _40
REMARK   17  A    between atoms: _39  and  _42
REMARK   18  A    between atoms: _45  and  _47
REMARK   19  A    between atoms: _47  and  _48
REMARK   20  A    between atoms: _47  and  _50
REMARK   21  A    between atoms: _50  and  _51
REMARK   22  A    between atoms: _54  and  _56
REMARK   23  A    between atoms: _56  and  _57
REMARK   24  A    between atoms: _56  and  _59
REMARK   25  A    between atoms: _59  and  _60
REMARK   26  A    between atoms: _63  and  _65
REMARK   27  A    between atoms: _65  and  _66
REMARK   28  A    between atoms: _69  and  _71
REMARK   29  A    between atoms: _71  and  _72
REMARK   30  A    between atoms: _71  and  _74
REMARK   31  A    between atoms: _76  and  _78
REMARK   32  A    between atoms: _78  and  _79
REMARK   33  A    between atoms: _78  and  _81
REMARK   34  A    between atoms: _81  and  _82
REMARK   35  A    between atoms: _82  and  _84
REMARK   36  A    between atoms: _84  and  NI_307
REMARK   37  A    between atoms: _85  and  _87
REMARK   38  A    between atoms: _87  and  _88
REMARK   39  A    between atoms: _87  and  _90
REMARK   40  A    between atoms: _90  and  _91
REMARK   41  A    between atoms: _94  and  _96
REMARK   42  A    between atoms: _96  and  _97
REMARK   43  A    between atoms: _96  and  _99
REMARK   44  A    between atoms: _101  and  _103
REMARK   45  A    between atoms: _103  and  _104
REMARK   46  A    between atoms: _103  and  _106
REMARK   47  A    between atoms: _106  and  _107
REMARK   48  A    between atoms: _109  and  _111
REMARK   49  A    between atoms: _111  and  _112
REMARK   50  A    between atoms: _111  and  _114
REMARK   51  A    between atoms: _117  and  _119
REMARK   52  A    between atoms: _119  and  _120
REMARK   53  A    between atoms: _119  and  _122
REMARK   54  A    between atoms: _122  and  _123
REMARK   55  A    between atoms: _126  and  _128
REMARK   56  A    between atoms: _128  and  _129
REMARK   57  A    between atoms: _128  and  _131
REMARK   58  A    between atoms: _131  and  _132
REMARK   59  A    between atoms: _132  and  _133
REMARK   60  A    between atoms: _133  and  _134
REMARK   61  A    between atoms: _134  and  _135
REMARK   62  A    between atoms: _139  and  _141
REMARK   63  A    between atoms: _141  and  _142
REMARK   64  A    between atoms: _141  and  _144
REMARK   65  A    between atoms: _144  and  _145
REMARK   66  A    between atoms: _148  and  _150
REMARK   67  A    between atoms: _150  and  _151
REMARK   68  A    between atoms: _150  and  _153
REMARK   69  A    between atoms: _153  and  _154
REMARK   70  A    between atoms: _157  and  _159
REMARK   71  A    between atoms: _159  and  _160
REMARK   72  A    between atoms: _163  and  _165
REMARK   73  A    between atoms: _165  and  _166
REMARK   74  A    between atoms: _165  and  _168
REMARK   75  A    between atoms: _168  and  _169
REMARK   76  A    between atoms: _172  and  _174
REMARK   77  A    between atoms: _174  and  _175
REMARK   78  A    between atoms: _174  and  _177
REMARK   79  A    between atoms: _177  and  _178
REMARK   80  A    between atoms: _183  and  _184
REMARK   81  A    between atoms: _186  and  _188
REMARK   82  A    between atoms: _188  and  _189
REMARK   83  A    between atoms: _188  and  _191
REMARK   84  A    between atoms: _191  and  _192
REMARK   85  A    between atoms: _198  and  _200
REMARK   86  A    between atoms: _200  and  _201
REMARK   87  A    between atoms: _200  and  _203
REMARK   88  A    between atoms: _203  and  _204
REMARK   89  A    between atoms: _204  and  _205
REMARK   90  A    between atoms: _207  and  _209
REMARK   91  A    between atoms: _209  and  _210
REMARK   92  A    between atoms: _209  and  _212
REMARK   93  A    between atoms: _215  and  _217
REMARK   94  A    between atoms: _217  and  _218
REMARK   95  A    between atoms: _220  and  _222
REMARK   96  A    between atoms: _222  and  _223
REMARK   97  A    between atoms: _222  and  _225
REMARK   98  A    between atoms: _225  and  _226
REMARK   99  A    between atoms: _226  and  _227
REMARK  100  A    between atoms: _232  and  _234
REMARK  101  A    between atoms: _234  and  _235
REMARK  102  A    between atoms: _237  and  _239
REMARK  103  A    between atoms: _239  and  _240
REMARK  104  A    between atoms: _239  and  _242
REMARK  105  A    between atoms: _242  and  _243
REMARK  106  A    between atoms: _249  and  _251
REMARK  107  A    between atoms: _251  and  _252
REMARK  108  A    between atoms: _251  and  _254
REMARK  109  A    between atoms: _254  and  _255
REMARK  110  A    between atoms: _260  and  _261
REMARK  111  A    between atoms: _263  and  _265
REMARK  112  A    between atoms: _265  and  _266
REMARK  113  A    between atoms: _265  and  _268
REMARK  114  A    between atoms: _271  and  _273
REMARK  115  A    between atoms: _273  and  _274
REMARK  116  A    between atoms: _277  and  _279
REMARK  117  A    between atoms: _279  and  _280
REMARK  118  A    between atoms: _279  and  _282
REMARK  119  A    between atoms: _282  and  _283
REMARK  120  A    between atoms: _288  and  _289
REMARK  121  A    between atoms: _291  and  _293
REMARK  122  A    between atoms: _293  and  _294
REMARK  123  A    between atoms: _293  and  _296
REMARK  124  A    between atoms: _296  and  _297
REMARK                            x       y       z     vdW  Elec       q    Type
REMARK                         _______ _______ _______ _____ _____    ______ ____
ROOT
ATOM      1  O   HOH     1       7.088 -34.706 -33.224  0.00  0.00    +0.000 OA
ENDROOT
TORSDOF 0
REMARK  Name = ../refined-set-2016/4msa/4msa_pocket.pdb
REMARK  124 active torsions:
REMARK  status: ('A' for Active; 'I' for Inactive)
REMARK    1  A    between atoms: _1  and  _3
REMARK    2  A    between atoms: _3  and  _4
REMARK    3  A    between atoms: _3  and  _6
REMARK    4  A    between atoms: _6  and  _7
REMARK    5  A    between atoms: _12  and  _13
REMARK    6  A    between atoms: _15  and  _17
REMARK    7  A    between atoms: _17  and  _18
REMARK    8  A    between atoms: _17  and  _20
REMARK    9  A    between atoms: _20  and  _21
REMARK   10  A    between atoms: _26  and  _28
REMARK   11  A    between atoms: _28  and  _29
REMARK   12  A    between atoms: _28  and  _31
REMARK   13  A    between atoms: _31  and  _32
REMARK   14  A    between atoms: _36  and  NI_307
REMARK   15  A    between atoms: _37  and  _39
REMARK   16  A    between atoms: _39  and  _40
REMARK   17  A    between atoms: _39  and  _42
REMARK   18  A    between atoms: _45  and  _47
REMARK   19  A    between atoms: _47  and  _48
REMARK   20  A    between atoms: _47  and  _50
REMARK   21  A    between atoms: _50  and  _51
REMARK   22  A    between atoms: _54  and  _56
REMARK   23  A    between atoms: _56  and  _57
REMARK   24  A    between atoms: _56  and  _59
REMARK   25  A    between atoms: _59  and  _60
REMARK   26  A    between atoms: _63  and  _65
REMARK   27  A    between atoms: _65  and  _66
REMARK   28  A    between atoms: _69  and  _71
REMARK   29  A    between atoms: _71  and  _72
REMARK   30  A    between atoms: _71  and  _74
REMARK   31  A    between atoms: _76  and  _78
REMARK   32  A    between atoms: _78  and  _79
REMARK   33  A    between atoms: _78  and  _81
REMARK   34  A    between atoms: _81  and  _82
REMARK   35  A    between atoms: _82  and  _84
REMARK   36  A    between atoms: _84  and  NI_307
REMARK   37  A    between atoms: _85  and  _87
REMARK   38  A    between atoms: _87  and  _88
REMARK   39  A    between atoms: _87  and  _90
REMARK   40  A    between atoms: _90  and  _91
REMARK   41  A    between atoms: _94  and  _96
REMARK   42  A    between atoms: _96  and  _97
REMARK   43  A    between atoms: _96  and  _99
REMARK   44  A    between atoms: _101  and  _103
REMARK   45  A    between atoms: _103  and  _104
REMARK   46  A    between atoms: _103  and  _106
REMARK   47  A    between atoms: _106  and  _107
REMARK   48  A    between atoms: _109  and  _111
REMARK   49  A    between atoms: _111  and  _112
REMARK   50  A    between atoms: _111  and  _114
REMARK   51  A    between atoms: _117  and  _119
REMARK   52  A    between atoms: _119  and  _120
REMARK   53  A    between atoms: _119  and  _122
REMARK   54  A    between atoms: _122  and  _123
REMARK   55  A    between atoms: _126  and  _128
REMARK   56  A    between atoms: _128  and  _129
REMARK   57  A    between atoms: _128  and  _131
REMARK   58  A    between atoms: _131  and  _132
REMARK   59  A    between atoms: _132  and  _133
REMARK   60  A    between atoms: _133  and  _134
REMARK   61  A    between atoms: _134  and  _135
REMARK   62  A    between atoms: _139  and  _141
REMARK   63  A    between atoms: _141  and  _142
REMARK   64  A    between atoms: _141  and  _144
REMARK   65  A    between atoms: _144  and  _145
REMARK   66  A    between atoms: _148  and  _150
REMARK   67  A    between atoms: _150  and  _151
REMARK   68  A    between atoms: _150  and  _153
REMARK   69  A    between atoms: _153  and  _154
REMARK   70  A    between atoms: _157  and  _159
REMARK   71  A    between atoms: _159  and  _160
REMARK   72  A    between atoms: _163  and  _165
REMARK   73  A    between atoms: _165  and  _166
REMARK   74  A    between atoms: _165  and  _168
REMARK   75  A    between atoms: _168  and  _169
REMARK   76  A    between atoms: _172  and  _174
REMARK   77  A    between atoms: _174  and  _175
REMARK   78  A    between atoms: _174  and  _177
REMARK   79  A    between atoms: _177  and  _178
REMARK   80  A    between atoms: _183  and  _184
REMARK   81  A    between atoms: _186  and  _188
REMARK   82  A    between atoms: _188  and  _189
REMARK   83  A    between atoms: _188  and  _191
REMARK   84  A    between atoms: _191  and  _192
REMARK   85  A    between atoms: _198  and  _200
REMARK   86  A    between atoms: _200  and  _201
REMARK   87  A    between atoms: _200  and  _203
REMARK   88  A    between atoms: _203  and  _204
REMARK   89  A    between atoms: _204  and  _205
REMARK   90  A    between atoms: _207  and  _209
REMARK   91  A    between atoms: _209  and  _210
REMARK   92  A    between atoms: _209  and  _212
REMARK   93  A    between atoms: _215  and  _217
REMARK   94  A    between atoms: _217  and  _218
REMARK   95  A    between atoms: _220  and  _222
REMARK   96  A    between atoms: _222  and  _223
REMARK   97  A    between atoms: _222  and  _225
REMARK   98  A    between atoms: _225  and  _226
REMARK   99  A    between atoms: _226  and  _227
REMARK  100  A    between atoms: _232  and  _234
REMARK  101  A    between atoms: _234  and  _235
REMARK  102  A    between atoms: _237  and  _239
REMARK  103  A    between atoms: _239  and  _240
REMARK  104  A    between atoms: _239  and  _242
REMARK  105  A    between atoms: _242  and  _243
REMARK  106  A    between atoms: _249  and  _251
REMARK  107  A    between atoms: _251  and  _252
REMARK  108  A    between atoms: _251  and  _254
REMARK  109  A    between atoms: _254  and  _255
REMARK  110  A    between atoms: _260  and  _261
REMARK  111  A    between atoms: _263  and  _265
REMARK  112  A    between atoms: _265  and  _266
REMARK  113  A    between atoms: _265  and  _268
REMARK  114  A    between atoms: _271  and  _273
REMARK  115  A    between atoms: _273  and  _274
REMARK  116  A    between atoms: _277  and  _279
REMARK  117  A    between atoms: _279  and  _280
REMARK  118  A    between atoms: _279  and  _282
REMARK  119  A    between atoms: _282  and  _283
REMARK  120  A    between atoms: _288  and  _289
REMARK  121  A    between atoms: _291  and  _293
REMARK  122  A    between atoms: _293  and  _294
REMARK  123  A    between atoms: _293  and  _296
REMARK  124  A    between atoms: _296  and  _297
REMARK                            x       y       z     vdW  Elec       q    Type
REMARK                         _______ _______ _______ _____ _____    ______ ____
ROOT
ATOM      1  O   HOH     1      10.852 -27.799 -35.000  0.00  0.00    +0.000 OA
ENDROOT
TORSDOF 0
REMARK  Name = ../refined-set-2016/4msa/4msa_pocket.pdb
REMARK  124 active torsions:
REMARK  status: ('A' for Active; 'I' for Inactive)
REMARK    1  A    between atoms: _1  and  _3
REMARK    2  A    between atoms: _3  and  _4
REMARK    3  A    between atoms: _3  and  _6
REMARK    4  A    between atoms: _6  and  _7
REMARK    5  A    between atoms: _12  and  _13
REMARK    6  A    between atoms: _15  and  _17
REMARK    7  A    between atoms: _17  and  _18
REMARK    8  A    between atoms: _17  and  _20
REMARK    9  A    between atoms: _20  and  _21
REMARK   10  A    between atoms: _26  and  _28
REMARK   11  A    between atoms: _28  and  _29
REMARK   12  A    between atoms: _28  and  _31
REMARK   13  A    between atoms: _31  and  _32
REMARK   14  A    between atoms: _36  and  NI_307
REMARK   15  A    between atoms: _37  and  _39
REMARK   16  A    between atoms: _39  and  _40
REMARK   17  A    between atoms: _39  and  _42
REMARK   18  A    between atoms: _45  and  _47
REMARK   19  A    between atoms: _47  and  _48
REMARK   20  A    between atoms: _47  and  _50
REMARK   21  A    between atoms: _50  and  _51
REMARK   22  A    between atoms: _54  and  _56
REMARK   23  A    between atoms: _56  and  _57
REMARK   24  A    between atoms: _56  and  _59
REMARK   25  A    between atoms: _59  and  _60
REMARK   26  A    between atoms: _63  and  _65
REMARK   27  A    between atoms: _65  and  _66
REMARK   28  A    between atoms: _69  and  _71
REMARK   29  A    between atoms: _71  and  _72
REMARK   30  A    between atoms: _71  and  _74
REMARK   31  A    between atoms: _76  and  _78
REMARK   32  A    between atoms: _78  and  _79
REMARK   33  A    between atoms: _78  and  _81
REMARK   34  A    between atoms: _81  and  _82
REMARK   35  A    between atoms: _82  and  _84
REMARK   36  A    between atoms: _84  and  NI_307
REMARK   37  A    between atoms: _85  and  _87
REMARK   38  A    between atoms: _87  and  _88
REMARK   39  A    between atoms: _87  and  _90
REMARK   40  A    between atoms: _90  and  _91
REMARK   41  A    between atoms: _94  and  _96
REMARK   42  A    between atoms: _96  and  _97
REMARK   43  A    between atoms: _96  and  _99
REMARK   44  A    between atoms: _101  and  _103
REMARK   45  A    between atoms: _103  and  _104
REMARK   46  A    between atoms: _103  and  _106
REMARK   47  A    between atoms: _106  and  _107
REMARK   48  A    between atoms: _109  and  _111
REMARK   49  A    between atoms: _111  and  _112
REMARK   50  A    between atoms: _111  and  _114
REMARK   51  A    between atoms: _117  and  _119
REMARK   52  A    between atoms: _119  and  _120
REMARK   53  A    between atoms: _119  and  _122
REMARK   54  A    between atoms: _122  and  _123
REMARK   55  A    between atoms: _126  and  _128
REMARK   56  A    between atoms: _128  and  _129
REMARK   57  A    between atoms: _128  and  _131
REMARK   58  A    between atoms: _131  and  _132
REMARK   59  A    between atoms: _132  and  _133
REMARK   60  A    between atoms: _133  and  _134
REMARK   61  A    between atoms: _134  and  _135
REMARK   62  A    between atoms: _139  and  _141
REMARK   63  A    between atoms: _141  and  _142
REMARK   64  A    between atoms: _141  and  _144
REMARK   65  A    between atoms: _144  and  _145
REMARK   66  A    between atoms: _148  and  _150
REMARK   67  A    between atoms: _150  and  _151
REMARK   68  A    between atoms: _150  and  _153
REMARK   69  A    between atoms: _153  and  _154
REMARK   70  A    between atoms: _157  and  _159
REMARK   71  A    between atoms: _159  and  _160
REMARK   72  A    between atoms: _163  and  _165
REMARK   73  A    between atoms: _165  and  _166
REMARK   74  A    between atoms: _165  and  _168
REMARK   75  A    between atoms: _168  and  _169
REMARK   76  A    between atoms: _172  and  _174
REMARK   77  A    between atoms: _174  and  _175
REMARK   78  A    between atoms: _174  and  _177
REMARK   79  A    between atoms: _177  and  _178
REMARK   80  A    between atoms: _183  and  _184
REMARK   81  A    between atoms: _186  and  _188
REMARK   82  A    between atoms: _188  and  _189
REMARK   83  A    between atoms: _188  and  _191
REMARK   84  A    between atoms: _191  and  _192
REMARK   85  A    between atoms: _198  and  _200
REMARK   86  A    between atoms: _200  and  _201
REMARK   87  A    between atoms: _200  and  _203
REMARK   88  A    between atoms: _203  and  _204
REMARK   89  A    between atoms: _204  and  _205
REMARK   90  A    between atoms: _207  and  _209
REMARK   91  A    between atoms: _209  and  _210
REMARK   92  A    between atoms: _209  and  _212
REMARK   93  A    between atoms: _215  and  _217
REMARK   94  A    between atoms: _217  and  _218
REMARK   95  A    between atoms: _220  and  _222
REMARK   96  A    between atoms: _222  and  _223
REMARK   97  A    between atoms: _222  and  _225
REMARK   98  A    between atoms: _225  and  _226
REMARK   99  A    between atoms: _226  and  _227
REMARK  100  A    between atoms: _232  and  _234
REMARK  101  A    between atoms: _234  and  _235
REMARK  102  A    between atoms: _237  and  _239
REMARK  103  A    between atoms: _239  and  _240
REMARK  104  A    between atoms: _239  and  _242
REMARK  105  A    between atoms: _242  and  _243
REMARK  106  A    between atoms: _249  and  _251
REMARK  107  A    between atoms: _251  and  _252
REMARK  108  A    between atoms: _251  and  _254
REMARK  109  A    between atoms: _254  and  _255
REMARK  110  A    between atoms: _260  and  _261
REMARK  111  A    between atoms: _263  and  _265
REMARK  112  A    between atoms: _265  and  _266
REMARK  113  A    between atoms: _265  and  _268
REMARK  114  A    between atoms: _271  and  _273
REMARK  115  A    between atoms: _273  and  _274
REMARK  116  A    between atoms: _277  and  _279
REMARK  117  A    between atoms: _279  and  _280
REMARK  118  A    between atoms: _279  and  _282
REMARK  119  A    between atoms: _282  and  _283
REMARK  120  A    between atoms: _288  and  _289
REMARK  121  A    between atoms: _291  and  _293
REMARK  122  A    between atoms: _293  and  _294
REMARK  123  A    between atoms: _293  and  _296
REMARK  124  A    between atoms: _296  and  _297
REMARK                            x       y       z     vdW  Elec       q    Type
REMARK                         _______ _______ _______ _____ _____    ______ ____
ROOT
ATOM      1  O   HOH     1       5.273 -30.758 -37.180  0.00  0.00    +0.000 OA
ENDROOT
TORSDOF 0
REMARK  Name = ../refined-set-2016/4msa/4msa_pocket.pdb
REMARK  124 active torsions:
REMARK  status: ('A' for Active; 'I' for Inactive)
REMARK    1  A    between atoms: _1  and  _3
REMARK    2  A    between atoms: _3  and  _4
REMARK    3  A    between atoms: _3  and  _6
REMARK    4  A    between atoms: _6  and  _7
REMARK    5  A    between atoms: _12  and  _13
REMARK    6  A    between atoms: _15  and  _17
REMARK    7  A    between atoms: _17  and  _18
REMARK    8  A    between atoms: _17  and  _20
REMARK    9  A    between atoms: _20  and  _21
REMARK   10  A    between atoms: _26  and  _28
REMARK   11  A    between atoms: _28  and  _29
REMARK   12  A    between atoms: _28  and  _31
REMARK   13  A    between atoms: _31  and  _32
REMARK   14  A    between atoms: _36  and  NI_307
REMARK   15  A    between atoms: _37  and  _39
REMARK   16  A    between atoms: _39  and  _40
REMARK   17  A    between atoms: _39  and  _42
REMARK   18  A    between atoms: _45  and  _47
REMARK   19  A    between atoms: _47  and  _48
REMARK   20  A    between atoms: _47  and  _50
REMARK   21  A    between atoms: _50  and  _51
REMARK   22  A    between atoms: _54  and  _56
REMARK   23  A    between atoms: _56  and  _57
REMARK   24  A    between atoms: _56  and  _59
REMARK   25  A    between atoms: _59  and  _60
REMARK   26  A    between atoms: _63  and  _65
REMARK   27  A    between atoms: _65  and  _66
REMARK   28  A    between atoms: _69  and  _71
REMARK   29  A    between atoms: _71  and  _72
REMARK   30  A    between atoms: _71  and  _74
REMARK   31  A    between atoms: _76  and  _78
REMARK   32  A    between atoms: _78  and  _79
REMARK   33  A    between atoms: _78  and  _81
REMARK   34  A    between atoms: _81  and  _82
REMARK   35  A    between atoms: _82  and  _84
REMARK   36  A    between atoms: _84  and  NI_307
REMARK   37  A    between atoms: _85  and  _87
REMARK   38  A    between atoms: _87  and  _88
REMARK   39  A    between atoms: _87  and  _90
REMARK   40  A    between atoms: _90  and  _91
REMARK   41  A    between atoms: _94  and  _96
REMARK   42  A    between atoms: _96  and  _97
REMARK   43  A    between atoms: _96  and  _99
REMARK   44  A    between atoms: _101  and  _103
REMARK   45  A    between atoms: _103  and  _104
REMARK   46  A    between atoms: _103  and  _106
REMARK   47  A    between atoms: _106  and  _107
REMARK   48  A    between atoms: _109  and  _111
REMARK   49  A    between atoms: _111  and  _112
REMARK   50  A    between atoms: _111  and  _114
REMARK   51  A    between atoms: _117  and  _119
REMARK   52  A    between atoms: _119  and  _120
REMARK   53  A    between atoms: _119  and  _122
REMARK   54  A    between atoms: _122  and  _123
REMARK   55  A    between atoms: _126  and  _128
REMARK   56  A    between atoms: _128  and  _129
REMARK   57  A    between atoms: _128  and  _131
REMARK   58  A    between atoms: _131  and  _132
REMARK   59  A    between atoms: _132  and  _133
REMARK   60  A    between atoms: _133  and  _134
REMARK   61  A    between atoms: _134  and  _135
REMARK   62  A    between atoms: _139  and  _141
REMARK   63  A    between atoms: _141  and  _142
REMARK   64  A    between atoms: _141  and  _144
REMARK   65  A    between atoms: _144  and  _145
REMARK   66  A    between atoms: _148  and  _150
REMARK   67  A    between atoms: _150  and  _151
REMARK   68  A    between atoms: _150  and  _153
REMARK   69  A    between atoms: _153  and  _154
REMARK   70  A    between atoms: _157  and  _159
REMARK   71  A    between atoms: _159  and  _160
REMARK   72  A    between atoms: _163  and  _165
REMARK   73  A    between atoms: _165  and  _166
REMARK   74  A    between atoms: _165  and  _168
REMARK   75  A    between atoms: _168  and  _169
REMARK   76  A    between atoms: _172  and  _174
REMARK   77  A    between atoms: _174  and  _175
REMARK   78  A    between atoms: _174  and  _177
REMARK   79  A    between atoms: _177  and  _178
REMARK   80  A    between atoms: _183  and  _184
REMARK   81  A    between atoms: _186  and  _188
REMARK   82  A    between atoms: _188  and  _189
REMARK   83  A    between atoms: _188  and  _191
REMARK   84  A    between atoms: _191  and  _192
REMARK   85  A    between atoms: _198  and  _200
REMARK   86  A    between atoms: _200  and  _201
REMARK   87  A    between atoms: _200  and  _203
REMARK   88  A    between atoms: _203  and  _204
REMARK   89  A    between atoms: _204  and  _205
REMARK   90  A    between atoms: _207  and  _209
REMARK   91  A    between atoms: _209  and  _210
REMARK   92  A    between atoms: _209  and  _212
REMARK   93  A    between atoms: _215  and  _217
REMARK   94  A    between atoms: _217  and  _218
REMARK   95  A    between atoms: _220  and  _222
REMARK   96  A    between atoms: _222  and  _223
REMARK   97  A    between atoms: _222  and  _225
REMARK   98  A    between atoms: _225  and  _226
REMARK   99  A    between atoms: _226  and  _227
REMARK  100  A    between atoms: _232  and  _234
REMARK  101  A    between atoms: _234  and  _235
REMARK  102  A    between atoms: _237  and  _239
REMARK  103  A    between atoms: _239  and  _240
REMARK  104  A    between atoms: _239  and  _242
REMARK  105  A    between atoms: _242  and  _243
REMARK  106  A    between atoms: _249  and  _251
REMARK  107  A    between atoms: _251  and  _252
REMARK  108  A    between atoms: _251  and  _254
REMARK  109  A    between atoms: _254  and  _255
REMARK  110  A    between atoms: _260  and  _261
REMARK  111  A    between atoms: _263  and  _265
REMARK  112  A    between atoms: _265  and  _266
REMARK  113  A    between atoms: _265  and  _268
REMARK  114  A    between atoms: _271  and  _273
REMARK  115  A    between atoms: _273  and  _274
REMARK  116  A    between atoms: _277  and  _279
REMARK  117  A    between atoms: _279  and  _280
REMARK  118  A    between atoms: _279  and  _282
REMARK  119  A    between atoms: _282  and  _283
REMARK  120  A    between atoms: _288  and  _289
REMARK  121  A    between atoms: _291  and  _293
REMARK  122  A    between atoms: _293  and  _294
REMARK  123  A    between atoms: _293  and  _296
REMARK  124  A    between atoms: _296  and  _297
REMARK                            x       y       z     vdW  Elec       q    Type
REMARK                         _______ _______ _______ _____ _____    ______ ____
ROOT
ATOM      1  O   HOH     1       7.763 -31.594 -36.177  0.00  0.00    +0.000 OA
ENDROOT
TORSDOF 0
