REMARK  Name = ../refined-set-2016/3ok9/3ok9_pocket.pdb
REMARK  228 active torsions:
REMARK  status: ('A' for Active; 'I' for Inactive)
REMARK    1  A    between atoms: _1  and  _3
REMARK    2  A    between atoms: _3  and  _4
REMARK    3  A    between atoms: _3  and  _6
REMARK    4  A    between atoms: _6  and  _7
REMARK    5  A    between atoms: _7  and  _8
REMARK    6  A    between atoms: _8  and  _9
REMARK    7  A    between atoms: _18  and  _20
REMARK    8  A    between atoms: _20  and  _21
REMARK    9  A    between atoms: _20  and  _23
REMARK   10  A    between atoms: _23  and  _24
REMARK   11  A    between atoms: _27  and  _29
REMARK   12  A    between atoms: _29  and  _30
REMARK   13  A    between atoms: _29  and  _32
REMARK   14  A    between atoms: _32  and  _33
REMARK   15  A    between atoms: _36  and  _38
REMARK   16  A    between atoms: _38  and  _39
REMARK   17  A    between atoms: _38  and  _41
REMARK   18  A    between atoms: _41  and  _42
REMARK   19  A    between atoms: _45  and  _47
REMARK   20  A    between atoms: _47  and  _48
REMARK   21  A    between atoms: _47  and  _50
REMARK   22  A    between atoms: _50  and  _51
REMARK   23  A    between atoms: _54  and  _56
REMARK   24  A    between atoms: _56  and  _57
REMARK   25  A    between atoms: _59  and  _61
REMARK   26  A    between atoms: _61  and  _62
REMARK   27  A    between atoms: _65  and  _67
REMARK   28  A    between atoms: _67  and  _68
REMARK   29  A    between atoms: _67  and  _70
REMARK   30  A    between atoms: _70  and  _71
REMARK   31  A    between atoms: _74  and  _76
REMARK   32  A    between atoms: _76  and  _77
REMARK   33  A    between atoms: _76  and  _79
REMARK   34  A    between atoms: _79  and  _80
REMARK   35  A    between atoms: _83  and  _85
REMARK   36  A    between atoms: _85  and  _86
REMARK   37  A    between atoms: _85  and  _88
REMARK   38  A    between atoms: _88  and  _89
REMARK   39  A    between atoms: _92  and  _94
REMARK   40  A    between atoms: _94  and  _95
REMARK   41  A    between atoms: _94  and  _97
REMARK   42  A    between atoms: _100  and  _102
REMARK   43  A    between atoms: _102  and  _103
REMARK   44  A    between atoms: _102  and  _105
REMARK   45  A    between atoms: _105  and  _106
REMARK   46  A    between atoms: _106  and  _107
REMARK   47  A    between atoms: _107  and  _108
REMARK   48  A    between atoms: _108  and  _109
REMARK   49  A    between atoms: _113  and  _115
REMARK   50  A    between atoms: _115  and  _116
REMARK   51  A    between atoms: _115  and  _118
REMARK   52  A    between atoms: _118  and  _119
REMARK   53  A    between atoms: _119  and  _120
REMARK   54  A    between atoms: _122  and  _124
REMARK   55  A    between atoms: _124  and  _125
REMARK   56  A    between atoms: _124  and  _127
REMARK   57  A    between atoms: _127  and  _128
REMARK   58  A    between atoms: _131  and  _133
REMARK   59  A    between atoms: _133  and  _134
REMARK   60  A    between atoms: _136  and  _138
REMARK   61  A    between atoms: _138  and  _139
REMARK   62  A    between atoms: _141  and  _143
REMARK   63  A    between atoms: _143  and  _144
REMARK   64  A    between atoms: _143  and  _146
REMARK   65  A    between atoms: _144  and  _145
REMARK   66  A    between atoms: _144  and  _150
REMARK   67  A    between atoms: _146  and  _147
REMARK   68  A    between atoms: _150  and  _152
REMARK   69  A    between atoms: _152  and  _153
REMARK   70  A    between atoms: _155  and  _157
REMARK   71  A    between atoms: _157  and  _158
REMARK   72  A    between atoms: _160  and  _162
REMARK   73  A    between atoms: _162  and  _163
REMARK   74  A    between atoms: _162  and  _165
REMARK   75  A    between atoms: _165  and  _166
REMARK   76  A    between atoms: _172  and  _174
REMARK   77  A    between atoms: _174  and  _175
REMARK   78  A    between atoms: _174  and  _177
REMARK   79  A    between atoms: _177  and  _178
REMARK   80  A    between atoms: _181  and  _183
REMARK   81  A    between atoms: _183  and  _184
REMARK   82  A    between atoms: _183  and  _186
REMARK   83  A    between atoms: _186  and  _187
REMARK   84  A    between atoms: _190  and  _192
REMARK   85  A    between atoms: _192  and  _193
REMARK   86  A    between atoms: _192  and  _195
REMARK   87  A    between atoms: _195  and  _196
REMARK   88  A    between atoms: _200  and  _201
REMARK   89  A    between atoms: _206  and  _208
REMARK   90  A    between atoms: _208  and  _209
REMARK   91  A    between atoms: _208  and  _211
REMARK   92  A    between atoms: _214  and  _216
REMARK   93  A    between atoms: _216  and  _217
REMARK   94  A    between atoms: _216  and  _219
REMARK   95  A    between atoms: _219  and  _220
REMARK   96  A    between atoms: _225  and  _227
REMARK   97  A    between atoms: _227  and  _228
REMARK   98  A    between atoms: _227  and  _230
REMARK   99  A    between atoms: _230  and  _231
REMARK  100  A    between atoms: _234  and  _236
REMARK  101  A    between atoms: _236  and  _237
REMARK  102  A    between atoms: _239  and  _241
REMARK  103  A    between atoms: _241  and  _242
REMARK  104  A    between atoms: _241  and  _244
REMARK  105  A    between atoms: _244  and  _245
REMARK  106  A    between atoms: _245  and  _246
REMARK  107  A    between atoms: _246  and  _247
REMARK  108  A    between atoms: _256  and  _258
REMARK  109  A    between atoms: _258  and  _259
REMARK  110  A    between atoms: _258  and  _261
REMARK  111  A    between atoms: _261  and  _262
REMARK  112  A    between atoms: _267  and  _269
REMARK  113  A    between atoms: _269  and  _270
REMARK  114  A    between atoms: _269  and  _272
REMARK  115  A    between atoms: _272  and  _273
REMARK  116  A    between atoms: _273  and  _274
REMARK  117  A    between atoms: _274  and  _275
REMARK  118  A    between atoms: _284  and  _286
REMARK  119  A    between atoms: _286  and  _287
REMARK  120  A    between atoms: _286  and  _289
REMARK  121  A    between atoms: _289  and  _290
REMARK  122  A    between atoms: _293  and  _295
REMARK  123  A    between atoms: _295  and  _296
REMARK  124  A    between atoms: _295  and  _298
REMARK  125  A    between atoms: _298  and  _299
REMARK  126  A    between atoms: _302  and  _304
REMARK  127  A    between atoms: _304  and  _305
REMARK  128  A    between atoms: _304  and  _307
REMARK  129  A    between atoms: _307  and  _308
REMARK  130  A    between atoms: _311  and  _313
REMARK  131  A    between atoms: _313  and  _314
REMARK  132  A    between atoms: _313  and  _316
REMARK  133  A    between atoms: _316  and  _317
REMARK  134  A    between atoms: _320  and  _322
REMARK  135  A    between atoms: _322  and  _323
REMARK  136  A    between atoms: _325  and  _327
REMARK  137  A    between atoms: _327  and  _328
REMARK  138  A    between atoms: _331  and  _333
REMARK  139  A    between atoms: _333  and  _334
REMARK  140  A    between atoms: _333  and  _336
REMARK  141  A    between atoms: _336  and  _337
REMARK  142  A    between atoms: _340  and  _342
REMARK  143  A    between atoms: _342  and  _343
REMARK  144  A    between atoms: _342  and  _345
REMARK  145  A    between atoms: _345  and  _346
REMARK  146  A    between atoms: _349  and  _351
REMARK  147  A    between atoms: _351  and  _352
REMARK  148  A    between atoms: _351  and  _354
REMARK  149  A    between atoms: _354  and  _355
REMARK  150  A    between atoms: _358  and  _360
REMARK  151  A    between atoms: _360  and  _361
REMARK  152  A    between atoms: _360  and  _363
REMARK  153  A    between atoms: _366  and  _368
REMARK  154  A    between atoms: _368  and  _369
REMARK  155  A    between atoms: _368  and  _371
REMARK  156  A    between atoms: _371  and  _372
REMARK  157  A    between atoms: _372  and  _373
REMARK  158  A    between atoms: _373  and  _374
REMARK  159  A    between atoms: _374  and  _375
REMARK  160  A    between atoms: _379  and  _381
REMARK  161  A    between atoms: _381  and  _382
REMARK  162  A    between atoms: _381  and  _384
REMARK  163  A    between atoms: _384  and  _385
REMARK  164  A    between atoms: _385  and  _386
REMARK  165  A    between atoms: _388  and  _390
REMARK  166  A    between atoms: _390  and  _391
REMARK  167  A    between atoms: _390  and  _393
REMARK  168  A    between atoms: _393  and  _394
REMARK  169  A    between atoms: _397  and  _399
REMARK  170  A    between atoms: _399  and  _400
REMARK  171  A    between atoms: _402  and  _404
REMARK  172  A    between atoms: _404  and  _405
REMARK  173  A    between atoms: _407  and  _409
REMARK  174  A    between atoms: _409  and  _410
REMARK  175  A    between atoms: _409  and  _412
REMARK  176  A    between atoms: _412  and  _413
REMARK  177  A    between atoms: _416  and  _418
REMARK  178  A    between atoms: _418  and  _419
REMARK  179  A    between atoms: _421  and  _423
REMARK  180  A    between atoms: _423  and  _424
REMARK  181  A    between atoms: _426  and  _428
REMARK  182  A    between atoms: _428  and  _429
REMARK  183  A    between atoms: _428  and  _431
REMARK  184  A    between atoms: _431  and  _432
REMARK  185  A    between atoms: _438  and  _440
REMARK  186  A    between atoms: _440  and  _441
REMARK  187  A    between atoms: _440  and  _443
REMARK  188  A    between atoms: _443  and  _444
REMARK  189  A    between atoms: _447  and  _449
REMARK  190  A    between atoms: _449  and  _450
REMARK  191  A    between atoms: _449  and  _452
REMARK  192  A    between atoms: _455  and  _457
REMARK  193  A    between atoms: _457  and  _458
REMARK  194  A    between atoms: _457  and  _460
REMARK  195  A    between atoms: _460  and  _461
REMARK  196  A    between atoms: _465  and  _466
REMARK  197  A    between atoms: _471  and  _473
REMARK  198  A    between atoms: _473  and  _474
REMARK  199  A    between atoms: _473  and  _476
REMARK  200  A    between atoms: _476  and  _477
REMARK  201  A    between atoms: _481  and  _482
REMARK  202  A    between atoms: _487  and  _489
REMARK  203  A    between atoms: _489  and  _490
REMARK  204  A    between atoms: _489  and  _492
REMARK  205  A    between atoms: _495  and  _497
REMARK  206  A    between atoms: _497  and  _498
REMARK  207  A    between atoms: _497  and  _500
REMARK  208  A    between atoms: _500  and  _501
REMARK  209  A    between atoms: _506  and  _508
REMARK  210  A    between atoms: _508  and  _509
REMARK  211  A    between atoms: _508  and  _511
REMARK  212  A    between atoms: _511  and  _512
REMARK  213  A    between atoms: _515  and  _517
REMARK  214  A    between atoms: _517  and  _518
REMARK  215  A    between atoms: _517  and  _520
REMARK  216  A    between atoms: _520  and  _521
REMARK  217  A    between atoms: _524  and  _526
REMARK  218  A    between atoms: _526  and  _527
REMARK  219  A    between atoms: _529  and  _531
REMARK  220  A    between atoms: _531  and  _532
REMARK  221  A    between atoms: _531  and  _534
REMARK  222  A    between atoms: _534  and  _535
REMARK  223  A    between atoms: _535  and  _536
REMARK  224  A    between atoms: _536  and  _537
REMARK  225  A    between atoms: _546  and  _548
REMARK  226  A    between atoms: _548  and  _549
REMARK  227  A    between atoms: _548  and  _551
REMARK  228  A    between atoms: _551  and  _552
REMARK                            x       y       z     vdW  Elec       q    Type
REMARK                         _______ _______ _______ _____ _____    ______ ____
ROOT
ATOM      1  NE  ARG A   1      23.013  30.400  22.507  0.00  0.00    -0.265 N 
ATOM      2  CZ  ARG A   1      24.190  29.767  22.419  0.00  0.00    +0.342 C 
ATOM      3  NH2 ARG A   1      24.787  29.363  23.517  0.00  0.00    -0.292 N 
ATOM      4 HH21 ARG A   1      24.345  29.536  24.443  0.00  0.00    +0.255 HD
ATOM      5 HH22 ARG A   1      25.701  28.870  23.461  0.00  0.00    +0.255 HD
ATOM      6  NH1 ARG A   1      24.737  29.529  21.230  0.00  0.00    -0.292 N 
ATOM      7 HH11 ARG A   1      25.651  29.037  21.167  0.00  0.00    +0.255 HD
ATOM      8 HH12 ARG A   1      24.250  29.835  20.363  0.00  0.00    +0.255 HD
ATOM      9  HE  ARG A   1      22.557  30.702  21.622  0.00  0.00    +0.259 HD
ENDROOT
BRANCH   1  10
ATOM     10  CD  ARG A   1      22.326  30.695  23.765  0.00  0.00    +0.174 C 
BRANCH  10  11
ATOM     11  CG  ARG A   1      21.271  31.753  23.526  0.00  0.00    +0.045 C 
BRANCH  11  12
ATOM     12  CB  ARG A   1      20.463  32.081  24.764  0.00  0.00    +0.029 C 
BRANCH  12  13
ATOM     13  CA  ARG A   1      19.462  33.221  24.580  0.00  0.00    +0.133 C 
BRANCH  13  14
ATOM     14  N   ARG A   1      20.181  34.485  24.467  0.00  0.00    -0.239 NA
ATOM     15  H   ARG A   1      21.220  34.499  24.503  0.00  0.00    +0.142 HD
ENDBRANCH  13  14
BRANCH  13  16
ATOM     16  C   ARG A   1      18.521  33.207  25.753  0.00  0.00    +0.224 C 
ATOM     17  O   ARG A   1      18.969  33.669  26.823  0.00  0.00    -0.287 OA
ENDBRANCH  13  16
ENDBRANCH  12  13
ENDBRANCH  11  12
ENDBRANCH  10  11
ENDBRANCH   1  10
TORSDOF 6
REMARK  Name = ../refined-set-2016/3ok9/3ok9_pocket.pdb
REMARK  228 active torsions:
REMARK  status: ('A' for Active; 'I' for Inactive)
REMARK    1  A    between atoms: _1  and  _3
REMARK    2  A    between atoms: _3  and  _4
REMARK    3  A    between atoms: _3  and  _6
REMARK    4  A    between atoms: _6  and  _7
REMARK    5  A    between atoms: _7  and  _8
REMARK    6  A    between atoms: _8  and  _9
REMARK    7  A    between atoms: _18  and  _20
REMARK    8  A    between atoms: _20  and  _21
REMARK    9  A    between atoms: _20  and  _23
REMARK   10  A    between atoms: _23  and  _24
REMARK   11  A    between atoms: _27  and  _29
REMARK   12  A    between atoms: _29  and  _30
REMARK   13  A    between atoms: _29  and  _32
REMARK   14  A    between atoms: _32  and  _33
REMARK   15  A    between atoms: _36  and  _38
REMARK   16  A    between atoms: _38  and  _39
REMARK   17  A    between atoms: _38  and  _41
REMARK   18  A    between atoms: _41  and  _42
REMARK   19  A    between atoms: _45  and  _47
REMARK   20  A    between atoms: _47  and  _48
REMARK   21  A    between atoms: _47  and  _50
REMARK   22  A    between atoms: _50  and  _51
REMARK   23  A    between atoms: _54  and  _56
REMARK   24  A    between atoms: _56  and  _57
REMARK   25  A    between atoms: _59  and  _61
REMARK   26  A    between atoms: _61  and  _62
REMARK   27  A    between atoms: _65  and  _67
REMARK   28  A    between atoms: _67  and  _68
REMARK   29  A    between atoms: _67  and  _70
REMARK   30  A    between atoms: _70  and  _71
REMARK   31  A    between atoms: _74  and  _76
REMARK   32  A    between atoms: _76  and  _77
REMARK   33  A    between atoms: _76  and  _79
REMARK   34  A    between atoms: _79  and  _80
REMARK   35  A    between atoms: _83  and  _85
REMARK   36  A    between atoms: _85  and  _86
REMARK   37  A    between atoms: _85  and  _88
REMARK   38  A    between atoms: _88  and  _89
REMARK   39  A    between atoms: _92  and  _94
REMARK   40  A    between atoms: _94  and  _95
REMARK   41  A    between atoms: _94  and  _97
REMARK   42  A    between atoms: _100  and  _102
REMARK   43  A    between atoms: _102  and  _103
REMARK   44  A    between atoms: _102  and  _105
REMARK   45  A    between atoms: _105  and  _106
REMARK   46  A    between atoms: _106  and  _107
REMARK   47  A    between atoms: _107  and  _108
REMARK   48  A    between atoms: _108  and  _109
REMARK   49  A    between atoms: _113  and  _115
REMARK   50  A    between atoms: _115  and  _116
REMARK   51  A    between atoms: _115  and  _118
REMARK   52  A    between atoms: _118  and  _119
REMARK   53  A    between atoms: _119  and  _120
REMARK   54  A    between atoms: _122  and  _124
REMARK   55  A    between atoms: _124  and  _125
REMARK   56  A    between atoms: _124  and  _127
REMARK   57  A    between atoms: _127  and  _128
REMARK   58  A    between atoms: _131  and  _133
REMARK   59  A    between atoms: _133  and  _134
REMARK   60  A    between atoms: _136  and  _138
REMARK   61  A    between atoms: _138  and  _139
REMARK   62  A    between atoms: _141  and  _143
REMARK   63  A    between atoms: _143  and  _144
REMARK   64  A    between atoms: _143  and  _146
REMARK   65  A    between atoms: _144  and  _145
REMARK   66  A    between atoms: _144  and  _150
REMARK   67  A    between atoms: _146  and  _147
REMARK   68  A    between atoms: _150  and  _152
REMARK   69  A    between atoms: _152  and  _153
REMARK   70  A    between atoms: _155  and  _157
REMARK   71  A    between atoms: _157  and  _158
REMARK   72  A    between atoms: _160  and  _162
REMARK   73  A    between atoms: _162  and  _163
REMARK   74  A    between atoms: _162  and  _165
REMARK   75  A    between atoms: _165  and  _166
REMARK   76  A    between atoms: _172  and  _174
REMARK   77  A    between atoms: _174  and  _175
REMARK   78  A    between atoms: _174  and  _177
REMARK   79  A    between atoms: _177  and  _178
REMARK   80  A    between atoms: _181  and  _183
REMARK   81  A    between atoms: _183  and  _184
REMARK   82  A    between atoms: _183  and  _186
REMARK   83  A    between atoms: _186  and  _187
REMARK   84  A    between atoms: _190  and  _192
REMARK   85  A    between atoms: _192  and  _193
REMARK   86  A    between atoms: _192  and  _195
REMARK   87  A    between atoms: _195  and  _196
REMARK   88  A    between atoms: _200  and  _201
REMARK   89  A    between atoms: _206  and  _208
REMARK   90  A    between atoms: _208  and  _209
REMARK   91  A    between atoms: _208  and  _211
REMARK   92  A    between atoms: _214  and  _216
REMARK   93  A    between atoms: _216  and  _217
REMARK   94  A    between atoms: _216  and  _219
REMARK   95  A    between atoms: _219  and  _220
REMARK   96  A    between atoms: _225  and  _227
REMARK   97  A    between atoms: _227  and  _228
REMARK   98  A    between atoms: _227  and  _230
REMARK   99  A    between atoms: _230  and  _231
REMARK  100  A    between atoms: _234  and  _236
REMARK  101  A    between atoms: _236  and  _237
REMARK  102  A    between atoms: _239  and  _241
REMARK  103  A    between atoms: _241  and  _242
REMARK  104  A    between atoms: _241  and  _244
REMARK  105  A    between atoms: _244  and  _245
REMARK  106  A    between atoms: _245  and  _246
REMARK  107  A    between atoms: _246  and  _247
REMARK  108  A    between atoms: _256  and  _258
REMARK  109  A    between atoms: _258  and  _259
REMARK  110  A    between atoms: _258  and  _261
REMARK  111  A    between atoms: _261  and  _262
REMARK  112  A    between atoms: _267  and  _269
REMARK  113  A    between atoms: _269  and  _270
REMARK  114  A    between atoms: _269  and  _272
REMARK  115  A    between atoms: _272  and  _273
REMARK  116  A    between atoms: _273  and  _274
REMARK  117  A    between atoms: _274  and  _275
REMARK  118  A    between atoms: _284  and  _286
REMARK  119  A    between atoms: _286  and  _287
REMARK  120  A    between atoms: _286  and  _289
REMARK  121  A    between atoms: _289  and  _290
REMARK  122  A    between atoms: _293  and  _295
REMARK  123  A    between atoms: _295  and  _296
REMARK  124  A    between atoms: _295  and  _298
REMARK  125  A    between atoms: _298  and  _299
REMARK  126  A    between atoms: _302  and  _304
REMARK  127  A    between atoms: _304  and  _305
REMARK  128  A    between atoms: _304  and  _307
REMARK  129  A    between atoms: _307  and  _308
REMARK  130  A    between atoms: _311  and  _313
REMARK  131  A    between atoms: _313  and  _314
REMARK  132  A    between atoms: _313  and  _316
REMARK  133  A    between atoms: _316  and  _317
REMARK  134  A    between atoms: _320  and  _322
REMARK  135  A    between atoms: _322  and  _323
REMARK  136  A    between atoms: _325  and  _327
REMARK  137  A    between atoms: _327  and  _328
REMARK  138  A    between atoms: _331  and  _333
REMARK  139  A    between atoms: _333  and  _334
REMARK  140  A    between atoms: _333  and  _336
REMARK  141  A    between atoms: _336  and  _337
REMARK  142  A    between atoms: _340  and  _342
REMARK  143  A    between atoms: _342  and  _343
REMARK  144  A    between atoms: _342  and  _345
REMARK  145  A    between atoms: _345  and  _346
REMARK  146  A    between atoms: _349  and  _351
REMARK  147  A    between atoms: _351  and  _352
REMARK  148  A    between atoms: _351  and  _354
REMARK  149  A    between atoms: _354  and  _355
REMARK  150  A    between atoms: _358  and  _360
REMARK  151  A    between atoms: _360  and  _361
REMARK  152  A    between atoms: _360  and  _363
REMARK  153  A    between atoms: _366  and  _368
REMARK  154  A    between atoms: _368  and  _369
REMARK  155  A    between atoms: _368  and  _371
REMARK  156  A    between atoms: _371  and  _372
REMARK  157  A    between atoms: _372  and  _373
REMARK  158  A    between atoms: _373  and  _374
REMARK  159  A    between atoms: _374  and  _375
REMARK  160  A    between atoms: _379  and  _381
REMARK  161  A    between atoms: _381  and  _382
REMARK  162  A    between atoms: _381  and  _384
REMARK  163  A    between atoms: _384  and  _385
REMARK  164  A    between atoms: _385  and  _386
REMARK  165  A    between atoms: _388  and  _390
REMARK  166  A    between atoms: _390  and  _391
REMARK  167  A    between atoms: _390  and  _393
REMARK  168  A    between atoms: _393  and  _394
REMARK  169  A    between atoms: _397  and  _399
REMARK  170  A    between atoms: _399  and  _400
REMARK  171  A    between atoms: _402  and  _404
REMARK  172  A    between atoms: _404  and  _405
REMARK  173  A    between atoms: _407  and  _409
REMARK  174  A    between atoms: _409  and  _410
REMARK  175  A    between atoms: _409  and  _412
REMARK  176  A    between atoms: _412  and  _413
REMARK  177  A    between atoms: _416  and  _418
REMARK  178  A    between atoms: _418  and  _419
REMARK  179  A    between atoms: _421  and  _423
REMARK  180  A    between atoms: _423  and  _424
REMARK  181  A    between atoms: _426  and  _428
REMARK  182  A    between atoms: _428  and  _429
REMARK  183  A    between atoms: _428  and  _431
REMARK  184  A    between atoms: _431  and  _432
REMARK  185  A    between atoms: _438  and  _440
REMARK  186  A    between atoms: _440  and  _441
REMARK  187  A    between atoms: _440  and  _443
REMARK  188  A    between atoms: _443  and  _444
REMARK  189  A    between atoms: _447  and  _449
REMARK  190  A    between atoms: _449  and  _450
REMARK  191  A    between atoms: _449  and  _452
REMARK  192  A    between atoms: _455  and  _457
REMARK  193  A    between atoms: _457  and  _458
REMARK  194  A    between atoms: _457  and  _460
REMARK  195  A    between atoms: _460  and  _461
REMARK  196  A    between atoms: _465  and  _466
REMARK  197  A    between atoms: _471  and  _473
REMARK  198  A    between atoms: _473  and  _474
REMARK  199  A    between atoms: _473  and  _476
REMARK  200  A    between atoms: _476  and  _477
REMARK  201  A    between atoms: _481  and  _482
REMARK  202  A    between atoms: _487  and  _489
REMARK  203  A    between atoms: _489  and  _490
REMARK  204  A    between atoms: _489  and  _492
REMARK  205  A    between atoms: _495  and  _497
REMARK  206  A    between atoms: _497  and  _498
REMARK  207  A    between atoms: _497  and  _500
REMARK  208  A    between atoms: _500  and  _501
REMARK  209  A    between atoms: _506  and  _508
REMARK  210  A    between atoms: _508  and  _509
REMARK  211  A    between atoms: _508  and  _511
REMARK  212  A    between atoms: _511  and  _512
REMARK  213  A    between atoms: _515  and  _517
REMARK  214  A    between atoms: _517  and  _518
REMARK  215  A    between atoms: _517  and  _520
REMARK  216  A    between atoms: _520  and  _521
REMARK  217  A    between atoms: _524  and  _526
REMARK  218  A    between atoms: _526  and  _527
REMARK  219  A    between atoms: _529  and  _531
REMARK  220  A    between atoms: _531  and  _532
REMARK  221  A    between atoms: _531  and  _534
REMARK  222  A    between atoms: _534  and  _535
REMARK  223  A    between atoms: _535  and  _536
REMARK  224  A    between atoms: _536  and  _537
REMARK  225  A    between atoms: _546  and  _548
REMARK  226  A    between atoms: _548  and  _549
REMARK  227  A    between atoms: _548  and  _551
REMARK  228  A    between atoms: _551  and  _552
REMARK                            x       y       z     vdW  Elec       q    Type
REMARK                         _______ _______ _______ _____ _____    ______ ____
ROOT
ATOM      1  C   GLY A   5      10.842  24.078  18.438  0.00  0.00    +0.243 C 
ATOM      2  N   ALA A   6      10.805  23.702  19.698  0.00  0.00    -0.297 N 
ATOM      3  H   ALA A   6      10.728  24.449  20.417  0.00  0.00    +0.150 HD
ATOM      4  O   GLY A   5      10.987  23.256  17.508  0.00  0.00    -0.273 OA
ENDROOT
BRANCH   2   5
ATOM      5  CA  ALA A   6      10.863  22.338  20.163  0.00  0.00    +0.149 C 
ATOM      6  CB  ALA A   6      11.813  22.238  21.357  0.00  0.00    +0.031 C 
BRANCH   5   7
ATOM      7  C   ALA A   6       9.498  21.884  20.637  0.00  0.00    +0.241 C 
ATOM      8  O   ALA A   6       8.885  22.473  21.520  0.00  0.00    -0.273 OA
ATOM      9  N   ASP A   7       9.010  20.776  20.061  0.00  0.00    -0.297 N 
ATOM     10  H   ASP A   7       9.531  20.319  19.285  0.00  0.00    +0.150 HD
BRANCH   9  11
ATOM     11  CA  ASP A   7       7.756  20.218  20.522  0.00  0.00    +0.160 C 
BRANCH  11  12
ATOM     12  C   ASP A   7       7.874  19.690  21.953  0.00  0.00    +0.241 C 
ATOM     13  O   ASP A   7       6.946  19.799  22.757  0.00  0.00    -0.273 OA
ATOM     14  N   ASP A   8       9.021  19.103  22.246  0.00  0.00    -0.297 N 
ATOM     15  H   ASP A   8       9.776  19.286  21.554  0.00  0.00    +0.150 HD
BRANCH  14  16
ATOM     16  CA  ASP A   8       9.427  18.256  23.343  0.00  0.00    +0.160 C 
BRANCH  16  17
ATOM     17  C   ASP A   8      10.561  18.828  24.182  0.00  0.00    +0.241 C 
ATOM     18  N   THR A   9      10.521  18.598  25.479  0.00  0.00    -0.295 N 
ATOM     19  H   THR A   9       9.681  18.120  25.863  0.00  0.00    +0.150 HD
ATOM     20  O   ASP A   8      11.484  19.441  23.609  0.00  0.00    -0.273 OA
BRANCH  18  21
ATOM     21  CA  THR A   9      11.576  18.969  26.407  0.00  0.00    +0.176 C 
BRANCH  21  22
ATOM     22  C   THR A   9      12.652  17.900  26.365  0.00  0.00    +0.243 C 
ATOM     23  O   THR A   9      12.336  16.707  26.524  0.00  0.00    -0.273 OA
ATOM     24  N   VAL A  10      13.892  18.288  26.200  0.00  0.00    -0.298 N 
ATOM     25  H   VAL A  10      14.095  19.307  26.158  0.00  0.00    +0.150 HD
BRANCH  24  26
ATOM     26  CA  VAL A  10      14.995  17.350  26.073  0.00  0.00    +0.137 C 
BRANCH  26  27
ATOM     27  CB  VAL A  10      15.516  17.218  24.623  0.00  0.00    +0.026 C 
ATOM     28  CG2 VAL A  10      16.424  15.992  24.524  0.00  0.00    +0.002 C 
ATOM     29  CG1 VAL A  10      14.423  17.100  23.575  0.00  0.00    +0.002 C 
ENDBRANCH  26  27
BRANCH  26  30
ATOM     30  C   VAL A  10      16.127  17.831  26.982  0.00  0.00    +0.227 C 
ATOM     31  O   VAL A  10      16.529  18.981  26.863  0.00  0.00    -0.286 OA
ENDBRANCH  26  30
ENDBRANCH  24  26
ENDBRANCH  21  22
BRANCH  21  32
ATOM     32  CB  THR A   9      10.952  19.124  27.796  0.00  0.00    +0.137 C 
ATOM     33  CG2 THR A   9      11.972  19.374  28.885  0.00  0.00    +0.034 C 
BRANCH  32  34
ATOM     34  OG1 THR A   9      10.088  20.283  27.725  0.00  0.00    -0.382 OA
ATOM     35  HG1 THR A   9       9.392  20.133  27.037  0.00  0.00    +0.210 HD
ENDBRANCH  32  34
ENDBRANCH  21  32
ENDBRANCH  18  21
ENDBRANCH  16  17
BRANCH  16  36
ATOM     36  CB  ASP A   8       9.993  16.906  22.851  0.00  0.00    +0.143 C 
BRANCH  36  37
ATOM     37  CG  ASP A   8       9.132  16.249  21.813  0.00  0.00    +0.367 C 
ATOM     38  OD2 ASP A   8       7.910  16.212  22.091  0.00  0.00    -0.246 OA
ATOM     39  OD1 ASP A   8       9.683  15.775  20.788  0.00  0.00    -0.246 OA
ENDBRANCH  36  37
ENDBRANCH  16  36
ENDBRANCH  14  16
ENDBRANCH  11  12
BRANCH  11  40
ATOM     40  CB  ASP A   7       7.336  19.049  19.625  0.00  0.00    +0.143 C 
BRANCH  40  41
ATOM     41  CG  ASP A   7       7.033  19.336  18.180  0.00  0.00    +0.367 C 
ATOM     42  OD2 ASP A   7       6.825  20.487  17.754  0.00  0.00    -0.246 OA
ATOM     43  OD1 ASP A   7       7.004  18.328  17.408  0.00  0.00    -0.246 OA
ENDBRANCH  40  41
ENDBRANCH  11  40
ENDBRANCH   9  11
ENDBRANCH   5   7
ENDBRANCH   2   5
BRANCH   1  44
ATOM     44  CA  GLY A   5      10.744  25.545  18.108  0.00  0.00    +0.176 C 
BRANCH  44  47
ATOM     45  C   THR A   4       9.374  26.640  19.781  0.00  0.00    +0.243 C 
ATOM     46  O   THR A   4       8.313  26.194  19.307  0.00  0.00    -0.273 OA
ATOM     47  N   GLY A   5      10.567  26.424  19.228  0.00  0.00    -0.295 N 
ATOM     48  H   GLY A   5      11.398  26.909  19.622  0.00  0.00    +0.150 HD
BRANCH  45  49
ATOM     49  CA  THR A   4       9.350  27.531  21.019  0.00  0.00    +0.176 C 
BRANCH  49  52
ATOM     50  C   ASP A   3      11.155  26.597  22.306  0.00  0.00    +0.241 C 
ATOM     51  O   ASP A   3      10.599  25.489  22.297  0.00  0.00    -0.273 OA
ATOM     52  N   THR A   4      10.643  27.658  21.661  0.00  0.00    -0.295 N 
ATOM     53  H   THR A   4      11.166  28.556  21.623  0.00  0.00    +0.150 HD
BRANCH  50  54
ATOM     54  CA  ASP A   3      12.465  26.828  22.983  0.00  0.00    +0.160 C 
BRANCH  54  56
ATOM     55  C   LEU A   2      12.987  28.109  24.955  0.00  0.00    +0.241 C 
ATOM     56  N   ASP A   3      12.336  27.077  24.397  0.00  0.00    -0.297 N 
ATOM     57  H   ASP A   3      11.740  26.458  24.983  0.00  0.00    +0.150 HD
ATOM     58  O   LEU A   2      13.568  28.971  24.274  0.00  0.00    -0.273 OA
BRANCH  55  59
ATOM     59  CA  LEU A   2      13.059  28.216  26.463  0.00  0.00    +0.149 C 
BRANCH  59  61
ATOM     60  C   LEU A   1      15.152  27.094  26.793  0.00  0.00    +0.238 C 
ATOM     61  N   LEU A   2      14.485  28.233  26.787  0.00  0.00    -0.297 N 
ATOM     62  H   LEU A   2      14.966  29.128  27.009  0.00  0.00    +0.150 HD
ATOM     63  O   LEU A   1      14.591  26.006  26.734  0.00  0.00    -0.274 OA
BRANCH  60  64
ATOM     64  CA  LEU A   1      16.673  27.191  26.933  0.00  0.00    +0.145 C 
BRANCH  64  65
ATOM     65  N   LEU A   1      17.072  26.213  27.934  0.00  0.00    -0.238 NA
ATOM     66  H   LEU A   1      17.227  25.230  27.632  0.00  0.00    +0.142 HD
ENDBRANCH  64  65
BRANCH  64  67
ATOM     67  CB  LEU A   1      17.507  26.835  25.700  0.00  0.00    +0.026 C 
BRANCH  67  68
ATOM     68  CG  LEU A   1      17.399  27.593  24.396  0.00  0.00    +0.002 C 
ATOM     69  CD2 LEU A   1      18.042  28.950  24.559  0.00  0.00    +0.000 C 
ATOM     70  CD1 LEU A   1      18.054  26.829  23.257  0.00  0.00    +0.000 C 
ENDBRANCH  67  68
ENDBRANCH  64  67
ENDBRANCH  60  64
ENDBRANCH  59  61
BRANCH  59  71
ATOM     71  CB  LEU A   2      12.342  29.443  27.027  0.00  0.00    +0.029 C 
BRANCH  71  72
ATOM     72  CG  LEU A   2      12.457  29.591  28.545  0.00  0.00    +0.002 C 
ATOM     73  CD2 LEU A   2      11.852  28.421  29.306  0.00  0.00    +0.000 C 
ATOM     74  CD1 LEU A   2      11.799  30.924  28.949  0.00  0.00    +0.000 C 
ENDBRANCH  71  72
ENDBRANCH  59  71
ENDBRANCH  55  59
ENDBRANCH  54  56
BRANCH  54  75
ATOM     75  CB  ASP A   3      13.375  25.609  22.798  0.00  0.00    +0.143 C 
BRANCH  75  76
ATOM     76  CG  ASP A   3      13.767  25.383  21.375  0.00  0.00    +0.367 C 
ATOM     77  OD2 ASP A   3      14.651  24.535  21.172  0.00  0.00    -0.246 OA
ATOM     78  OD1 ASP A   3      13.212  26.087  20.486  0.00  0.00    -0.246 OA
ENDBRANCH  75  76
ENDBRANCH  54  75
ENDBRANCH  50  54
ENDBRANCH  49  52
BRANCH  49  79
ATOM     79  CB  THR A   4       8.765  28.908  20.640  0.00  0.00    +0.137 C 
ATOM     80  CG2 THR A   4       8.566  29.755  21.876  0.00  0.00    +0.034 C 
BRANCH  79  81
ATOM     81  OG1 THR A   4       9.683  29.577  19.795  0.00  0.00    -0.382 OA
ATOM     82  HG1 THR A   4       9.830  29.038  18.978  0.00  0.00    +0.210 HD
ENDBRANCH  79  81
ENDBRANCH  49  79
ENDBRANCH  45  49
ENDBRANCH  44  47
ENDBRANCH   1  44
TORSDOF 35
REMARK  Name = ../refined-set-2016/3ok9/3ok9_pocket.pdb
REMARK  228 active torsions:
REMARK  status: ('A' for Active; 'I' for Inactive)
REMARK    1  A    between atoms: _1  and  _3
REMARK    2  A    between atoms: _3  and  _4
REMARK    3  A    between atoms: _3  and  _6
REMARK    4  A    between atoms: _6  and  _7
REMARK    5  A    between atoms: _7  and  _8
REMARK    6  A    between atoms: _8  and  _9
REMARK    7  A    between atoms: _18  and  _20
REMARK    8  A    between atoms: _20  and  _21
REMARK    9  A    between atoms: _20  and  _23
REMARK   10  A    between atoms: _23  and  _24
REMARK   11  A    between atoms: _27  and  _29
REMARK   12  A    between atoms: _29  and  _30
REMARK   13  A    between atoms: _29  and  _32
REMARK   14  A    between atoms: _32  and  _33
REMARK   15  A    between atoms: _36  and  _38
REMARK   16  A    between atoms: _38  and  _39
REMARK   17  A    between atoms: _38  and  _41
REMARK   18  A    between atoms: _41  and  _42
REMARK   19  A    between atoms: _45  and  _47
REMARK   20  A    between atoms: _47  and  _48
REMARK   21  A    between atoms: _47  and  _50
REMARK   22  A    between atoms: _50  and  _51
REMARK   23  A    between atoms: _54  and  _56
REMARK   24  A    between atoms: _56  and  _57
REMARK   25  A    between atoms: _59  and  _61
REMARK   26  A    between atoms: _61  and  _62
REMARK   27  A    between atoms: _65  and  _67
REMARK   28  A    between atoms: _67  and  _68
REMARK   29  A    between atoms: _67  and  _70
REMARK   30  A    between atoms: _70  and  _71
REMARK   31  A    between atoms: _74  and  _76
REMARK   32  A    between atoms: _76  and  _77
REMARK   33  A    between atoms: _76  and  _79
REMARK   34  A    between atoms: _79  and  _80
REMARK   35  A    between atoms: _83  and  _85
REMARK   36  A    between atoms: _85  and  _86
REMARK   37  A    between atoms: _85  and  _88
REMARK   38  A    between atoms: _88  and  _89
REMARK   39  A    between atoms: _92  and  _94
REMARK   40  A    between atoms: _94  and  _95
REMARK   41  A    between atoms: _94  and  _97
REMARK   42  A    between atoms: _100  and  _102
REMARK   43  A    between atoms: _102  and  _103
REMARK   44  A    between atoms: _102  and  _105
REMARK   45  A    between atoms: _105  and  _106
REMARK   46  A    between atoms: _106  and  _107
REMARK   47  A    between atoms: _107  and  _108
REMARK   48  A    between atoms: _108  and  _109
REMARK   49  A    between atoms: _113  and  _115
REMARK   50  A    between atoms: _115  and  _116
REMARK   51  A    between atoms: _115  and  _118
REMARK   52  A    between atoms: _118  and  _119
REMARK   53  A    between atoms: _119  and  _120
REMARK   54  A    between atoms: _122  and  _124
REMARK   55  A    between atoms: _124  and  _125
REMARK   56  A    between atoms: _124  and  _127
REMARK   57  A    between atoms: _127  and  _128
REMARK   58  A    between atoms: _131  and  _133
REMARK   59  A    between atoms: _133  and  _134
REMARK   60  A    between atoms: _136  and  _138
REMARK   61  A    between atoms: _138  and  _139
REMARK   62  A    between atoms: _141  and  _143
REMARK   63  A    between atoms: _143  and  _144
REMARK   64  A    between atoms: _143  and  _146
REMARK   65  A    between atoms: _144  and  _145
REMARK   66  A    between atoms: _144  and  _150
REMARK   67  A    between atoms: _146  and  _147
REMARK   68  A    between atoms: _150  and  _152
REMARK   69  A    between atoms: _152  and  _153
REMARK   70  A    between atoms: _155  and  _157
REMARK   71  A    between atoms: _157  and  _158
REMARK   72  A    between atoms: _160  and  _162
REMARK   73  A    between atoms: _162  and  _163
REMARK   74  A    between atoms: _162  and  _165
REMARK   75  A    between atoms: _165  and  _166
REMARK   76  A    between atoms: _172  and  _174
REMARK   77  A    between atoms: _174  and  _175
REMARK   78  A    between atoms: _174  and  _177
REMARK   79  A    between atoms: _177  and  _178
REMARK   80  A    between atoms: _181  and  _183
REMARK   81  A    between atoms: _183  and  _184
REMARK   82  A    between atoms: _183  and  _186
REMARK   83  A    between atoms: _186  and  _187
REMARK   84  A    between atoms: _190  and  _192
REMARK   85  A    between atoms: _192  and  _193
REMARK   86  A    between atoms: _192  and  _195
REMARK   87  A    between atoms: _195  and  _196
REMARK   88  A    between atoms: _200  and  _201
REMARK   89  A    between atoms: _206  and  _208
REMARK   90  A    between atoms: _208  and  _209
REMARK   91  A    between atoms: _208  and  _211
REMARK   92  A    between atoms: _214  and  _216
REMARK   93  A    between atoms: _216  and  _217
REMARK   94  A    between atoms: _216  and  _219
REMARK   95  A    between atoms: _219  and  _220
REMARK   96  A    between atoms: _225  and  _227
REMARK   97  A    between atoms: _227  and  _228
REMARK   98  A    between atoms: _227  and  _230
REMARK   99  A    between atoms: _230  and  _231
REMARK  100  A    between atoms: _234  and  _236
REMARK  101  A    between atoms: _236  and  _237
REMARK  102  A    between atoms: _239  and  _241
REMARK  103  A    between atoms: _241  and  _242
REMARK  104  A    between atoms: _241  and  _244
REMARK  105  A    between atoms: _244  and  _245
REMARK  106  A    between atoms: _245  and  _246
REMARK  107  A    between atoms: _246  and  _247
REMARK  108  A    between atoms: _256  and  _258
REMARK  109  A    between atoms: _258  and  _259
REMARK  110  A    between atoms: _258  and  _261
REMARK  111  A    between atoms: _261  and  _262
REMARK  112  A    between atoms: _267  and  _269
REMARK  113  A    between atoms: _269  and  _270
REMARK  114  A    between atoms: _269  and  _272
REMARK  115  A    between atoms: _272  and  _273
REMARK  116  A    between atoms: _273  and  _274
REMARK  117  A    between atoms: _274  and  _275
REMARK  118  A    between atoms: _284  and  _286
REMARK  119  A    between atoms: _286  and  _287
REMARK  120  A    between atoms: _286  and  _289
REMARK  121  A    between atoms: _289  and  _290
REMARK  122  A    between atoms: _293  and  _295
REMARK  123  A    between atoms: _295  and  _296
REMARK  124  A    between atoms: _295  and  _298
REMARK  125  A    between atoms: _298  and  _299
REMARK  126  A    between atoms: _302  and  _304
REMARK  127  A    between atoms: _304  and  _305
REMARK  128  A    between atoms: _304  and  _307
REMARK  129  A    between atoms: _307  and  _308
REMARK  130  A    between atoms: _311  and  _313
REMARK  131  A    between atoms: _313  and  _314
REMARK  132  A    between atoms: _313  and  _316
REMARK  133  A    between atoms: _316  and  _317
REMARK  134  A    between atoms: _320  and  _322
REMARK  135  A    between atoms: _322  and  _323
REMARK  136  A    between atoms: _325  and  _327
REMARK  137  A    between atoms: _327  and  _328
REMARK  138  A    between atoms: _331  and  _333
REMARK  139  A    between atoms: _333  and  _334
REMARK  140  A    between atoms: _333  and  _336
REMARK  141  A    between atoms: _336  and  _337
REMARK  142  A    between atoms: _340  and  _342
REMARK  143  A    between atoms: _342  and  _343
REMARK  144  A    between atoms: _342  and  _345
REMARK  145  A    between atoms: _345  and  _346
REMARK  146  A    between atoms: _349  and  _351
REMARK  147  A    between atoms: _351  and  _352
REMARK  148  A    between atoms: _351  and  _354
REMARK  149  A    between atoms: _354  and  _355
REMARK  150  A    between atoms: _358  and  _360
REMARK  151  A    between atoms: _360  and  _361
REMARK  152  A    between atoms: _360  and  _363
REMARK  153  A    between atoms: _366  and  _368
REMARK  154  A    between atoms: _368  and  _369
REMARK  155  A    between atoms: _368  and  _371
REMARK  156  A    between atoms: _371  and  _372
REMARK  157  A    between atoms: _372  and  _373
REMARK  158  A    between atoms: _373  and  _374
REMARK  159  A    between atoms: _374  and  _375
REMARK  160  A    between atoms: _379  and  _381
REMARK  161  A    between atoms: _381  and  _382
REMARK  162  A    between atoms: _381  and  _384
REMARK  163  A    between atoms: _384  and  _385
REMARK  164  A    between atoms: _385  and  _386
REMARK  165  A    between atoms: _388  and  _390
REMARK  166  A    between atoms: _390  and  _391
REMARK  167  A    between atoms: _390  and  _393
REMARK  168  A    between atoms: _393  and  _394
REMARK  169  A    between atoms: _397  and  _399
REMARK  170  A    between atoms: _399  and  _400
REMARK  171  A    between atoms: _402  and  _404
REMARK  172  A    between atoms: _404  and  _405
REMARK  173  A    between atoms: _407  and  _409
REMARK  174  A    between atoms: _409  and  _410
REMARK  175  A    between atoms: _409  and  _412
REMARK  176  A    between atoms: _412  and  _413
REMARK  177  A    between atoms: _416  and  _418
REMARK  178  A    between atoms: _418  and  _419
REMARK  179  A    between atoms: _421  and  _423
REMARK  180  A    between atoms: _423  and  _424
REMARK  181  A    between atoms: _426  and  _428
REMARK  182  A    between atoms: _428  and  _429
REMARK  183  A    between atoms: _428  and  _431
REMARK  184  A    between atoms: _431  and  _432
REMARK  185  A    between atoms: _438  and  _440
REMARK  186  A    between atoms: _440  and  _441
REMARK  187  A    between atoms: _440  and  _443
REMARK  188  A    between atoms: _443  and  _444
REMARK  189  A    between atoms: _447  and  _449
REMARK  190  A    between atoms: _449  and  _450
REMARK  191  A    between atoms: _449  and  _452
REMARK  192  A    between atoms: _455  and  _457
REMARK  193  A    between atoms: _457  and  _458
REMARK  194  A    between atoms: _457  and  _460
REMARK  195  A    between atoms: _460  and  _461
REMARK  196  A    between atoms: _465  and  _466
REMARK  197  A    between atoms: _471  and  _473
REMARK  198  A    between atoms: _473  and  _474
REMARK  199  A    between atoms: _473  and  _476
REMARK  200  A    between atoms: _476  and  _477
REMARK  201  A    between atoms: _481  and  _482
REMARK  202  A    between atoms: _487  and  _489
REMARK  203  A    between atoms: _489  and  _490
REMARK  204  A    between atoms: _489  and  _492
REMARK  205  A    between atoms: _495  and  _497
REMARK  206  A    between atoms: _497  and  _498
REMARK  207  A    between atoms: _497  and  _500
REMARK  208  A    between atoms: _500  and  _501
REMARK  209  A    between atoms: _506  and  _508
REMARK  210  A    between atoms: _508  and  _509
REMARK  211  A    between atoms: _508  and  _511
REMARK  212  A    between atoms: _511  and  _512
REMARK  213  A    between atoms: _515  and  _517
REMARK  214  A    between atoms: _517  and  _518
REMARK  215  A    between atoms: _517  and  _520
REMARK  216  A    between atoms: _520  and  _521
REMARK  217  A    between atoms: _524  and  _526
REMARK  218  A    between atoms: _526  and  _527
REMARK  219  A    between atoms: _529  and  _531
REMARK  220  A    between atoms: _531  and  _532
REMARK  221  A    between atoms: _531  and  _534
REMARK  222  A    between atoms: _534  and  _535
REMARK  223  A    between atoms: _535  and  _536
REMARK  224  A    between atoms: _536  and  _537
REMARK  225  A    between atoms: _546  and  _548
REMARK  226  A    between atoms: _548  and  _549
REMARK  227  A    between atoms: _548  and  _551
REMARK  228  A    between atoms: _551  and  _552
REMARK                            x       y       z     vdW  Elec       q    Type
REMARK                         _______ _______ _______ _____ _____    ______ ____
ROOT
ATOM      1  C   UNK A   0      17.360  18.463  13.407  0.00  0.00    +0.243 C 
ATOM      2  N   UNK A   0      18.041  19.578  13.555  0.00  0.00    -0.301 N 
ATOM      3  H   UNK A   0      18.092  20.064  14.473  0.00  0.00    +0.150 HD
ATOM      4  O   UNK A   0      17.316  17.714  12.437  0.00  0.00    -0.273 OA
ENDROOT
BRANCH   2   5
ATOM      5  C   UNK A   0      18.712  20.097  12.395  0.00  0.00    +0.118 C 
BRANCH   5   6
ATOM      6  C   UNK A   0      19.454  21.419  12.757  0.00  0.00    +0.022 C 
ATOM      7  C   UNK A   0      20.945  21.322  12.757  0.00  0.00    +0.002 C 
BRANCH   6   8
ATOM      8  C   UNK A   0      18.925  22.527  11.825  0.00  0.00    +0.002 C 
ATOM      9  C   UNK A   0      19.161  23.929  12.329  0.00  0.00    +0.000 C 
ENDBRANCH   6   8
ENDBRANCH   5   6
BRANCH   5  10
ATOM     10  C   UNK A   0      19.630  19.085  11.741  0.00  0.00    +0.231 C 
BRANCH  10  11
ATOM     11  N   UNK A   0      20.340  18.270  12.515  0.00  0.00    -0.264 NA
ATOM     12  H   UNK A   0      20.163  18.201  13.538  0.00  0.00    +0.126 HD
BRANCH  11  13
ATOM     13  C   UNK A   0      21.377  17.477  11.867  0.00  0.00    +0.157 C 
BRANCH  13  14
ATOM     14  C   UNK A   0      21.005  16.055  11.556  0.00  0.00    +0.239 C 
ATOM     15  N   UNK A   0      19.852  15.722  12.100  0.00  0.00    -0.296 N 
ATOM     16  H   UNK A   0      19.274  16.447  12.571  0.00  0.00    +0.150 HD
ATOM     17  O   UNK A   0      21.651  15.245  10.884  0.00  0.00    -0.274 OA
BRANCH  15  18
ATOM     18  C   UNK A   0      19.381  14.340  12.046  0.00  0.00    +0.176 C 
BRANCH  18  19
ATOM     19  C   UNK A   0      18.659  13.974  13.353  0.00  0.00    +0.243 C 
ATOM     20  O   UNK A   0      18.209  14.833  14.108  0.00  0.00    -0.273 OA
ATOM     21  N   PHE A   1      18.534  12.668  13.533  0.00  0.00    -0.297 N 
ATOM     22  H   PHE A   1      19.000  12.025  12.861  0.00  0.00    +0.150 HD
BRANCH  21  23
ATOM     23  CA  PHE A   1      17.774  12.099  14.629  0.00  0.00    +0.153 C 
BRANCH  23  24
ATOM     24  C   PHE A   1      18.678  11.558  15.720  0.00  0.00    +0.241 C 
ATOM     25  N   ILE A   2      18.185  11.587  16.932  0.00  0.00    -0.298 N 
ATOM     26  H   ILE A   2      17.296  12.101  17.098  0.00  0.00    +0.150 HD
ATOM     27  O   PHE A   1      19.800  11.080  15.462  0.00  0.00    -0.273 OA
BRANCH  25  28
ATOM     28  CA  ILE A   2      18.836  10.924  18.063  0.00  0.00    +0.137 C 
BRANCH  28  29
ATOM     29  CB  ILE A   2      19.496  11.896  19.055  0.00  0.00    +0.026 C 
ATOM     30  CG2 ILE A   2      20.640  12.711  18.422  0.00  0.00    +0.002 C 
BRANCH  29  31
ATOM     31  CG1 ILE A   2      18.514  12.846  19.747  0.00  0.00    +0.002 C 
ATOM     32  CD1 ILE A   2      19.055  13.718  20.874  0.00  0.00    +0.000 C 
ENDBRANCH  29  31
ENDBRANCH  28  29
BRANCH  28  33
ATOM     33  C   ILE A   2      17.788  10.089  18.801  0.00  0.00    +0.227 C 
ATOM     34  O   ILE A   2      16.574  10.368  18.772  0.00  0.00    -0.286 OA
ENDBRANCH  28  33
ENDBRANCH  25  28
ENDBRANCH  23  24
BRANCH  23  35
ATOM     35  CB  PHE A   1      16.926  10.984  14.022  0.00  0.00    +0.055 C 
BRANCH  35  36
ATOM     36  CG  PHE A   1      15.697  11.496  13.306  0.00  0.00    -0.020 A 
ATOM     37  CD2 PHE A   1      14.484  11.503  13.964  0.00  0.00    -0.004 A 
ATOM     38  CE2 PHE A   1      13.313  11.940  13.395  0.00  0.00    -0.000 A 
ATOM     39  CZ  PHE A   1      13.319  12.417  12.100  0.00  0.00    -0.000 A 
ATOM     40  CE1 PHE A   1      14.539  12.438  11.438  0.00  0.00    -0.000 A 
ATOM     41  CD1 PHE A   1      15.714  11.974  12.019  0.00  0.00    -0.004 A 
ENDBRANCH  35  36
ENDBRANCH  23  35
ENDBRANCH  21  23
ENDBRANCH  18  19
ENDBRANCH  15  18
ENDBRANCH  13  14
ENDBRANCH  11  13
ENDBRANCH  10  11
BRANCH  10  42
ATOM     42  O   UNK A   0      19.635  19.035  10.520  0.00  0.00    -0.173 OA
ATOM     43  O   UNK A   0      19.582  18.080   9.035  0.00  0.00    -0.033 OA
ENDBRANCH  10  42
ENDBRANCH   5  10
ENDBRANCH   2   5
BRANCH   1  44
ATOM     44  C   UNK A   0      16.547  18.109  14.635  0.00  0.00    +0.176 C 
BRANCH  44  47
ATOM     45  C   UNK A   0      15.046  16.325  14.960  0.00  0.00    +0.243 C 
ATOM     46  O   UNK A   0      14.197  17.171  15.274  0.00  0.00    -0.273 OA
ATOM     47  N   UNK A   0      16.290  16.692  14.596  0.00  0.00    -0.295 N 
ATOM     48  H   UNK A   0      17.013  16.002  14.308  0.00  0.00    +0.150 HD
BRANCH  45  49
ATOM     49  C   UNK A   0      14.796  14.846  14.947  0.00  0.00    +0.176 C 
BRANCH  49  52
ATOM     50  C   UNK A   0      14.478  13.395  16.831  0.00  0.00    +0.241 C 
ATOM     51  O   UNK A   0      15.634  13.007  16.785  0.00  0.00    -0.273 OA
ATOM     52  N   UNK A   0      14.006  14.352  16.036  0.00  0.00    -0.295 N 
ATOM     53  H   UNK A   0      13.058  14.744  16.206  0.00  0.00    +0.150 HD
BRANCH  50  54
ATOM     54  C   UNK A   0      13.507  12.866  17.860  0.00  0.00    +0.149 C 
BRANCH  54  56
ATOM     55  C   UNK A   0      13.036  10.541  18.048  0.00  0.00    +0.241 C 
ATOM     56  N   UNK A   0      13.932  11.510  18.175  0.00  0.00    -0.297 N 
ATOM     57  H   UNK A   0      14.903  11.309  18.488  0.00  0.00    +0.150 HD
ATOM     58  O   UNK A   0      11.856  10.686  17.737  0.00  0.00    -0.273 OA
BRANCH  55  59
ATOM     59  C   UNK A   0      13.521   9.121  18.355  0.00  0.00    +0.149 C 
BRANCH  59  62
ATOM     60  C   UNK A   0      12.842   8.218  20.503  0.00  0.00    +0.238 C 
ATOM     61  O   UNK A   0      13.991   8.274  20.934  0.00  0.00    -0.274 OA
ATOM     62  N   UNK A   0      12.562   8.526  19.263  0.00  0.00    -0.297 N 
ATOM     63  H   UNK A   0      11.602   8.334  18.911  0.00  0.00    +0.150 HD
BRANCH  60  64
ATOM     64  C   UNK A   0      11.630   7.776  21.323  0.00  0.00    +0.145 C 
BRANCH  64  65
ATOM     65  N   UNK A   0      12.081   6.766  22.266  0.00  0.00    -0.238 NA
ATOM     66  H   UNK A   0      13.081   6.764  22.552  0.00  0.00    +0.142 HD
ENDBRANCH  64  65
BRANCH  64  67
ATOM     67  C   UNK A   0      10.967   8.939  22.034  0.00  0.00    +0.026 C 
BRANCH  67  68
ATOM     68  C   UNK A   0      10.236   9.924  21.127  0.00  0.00    -0.000 C 
BRANCH  68  69
ATOM     69  C   UNK A   0       9.637  11.047  21.968  0.00  0.00    -0.024 C 
BRANCH  69  70
ATOM     70  C   UNK A   0       8.960  12.008  21.004  0.00  0.00    -0.086 C 
BRANCH  70  71
ATOM     71  N   UNK A   0       7.740  11.388  20.390  0.00  0.00    +0.380 N 
ATOM     72  H   UNK A   0       7.065  11.138  21.140  0.00  0.00    -0.089 HD
ATOM     73  H   UNK A   0       8.013  10.531  19.869  0.00  0.00    -0.089 HD
ATOM     74  H   UNK A   0       7.299  12.067  19.737  0.00  0.00    -0.089 HD
ENDBRANCH  70  71
ENDBRANCH  69  70
ENDBRANCH  68  69
ENDBRANCH  67  68
ENDBRANCH  64  67
ENDBRANCH  60  64
ENDBRANCH  59  62
BRANCH  59  75
ATOM     75  C   UNK A   0      13.684   8.377  17.023  0.00  0.00    +0.041 C 
BRANCH  75  76
ATOM     76  C   UNK A   0      14.137   6.942  17.140  0.00  0.00    +0.060 C 
BRANCH  76  77
ATOM     77  S   UNK A   0      15.029   6.316  15.708  0.00  0.00    -0.139 S 
ATOM     78  C   UNK A   0      16.360   7.504  15.628  0.00  0.00    +0.069 C 
ENDBRANCH  76  77
ENDBRANCH  75  76
ENDBRANCH  59  75
ENDBRANCH  55  59
ENDBRANCH  54  56
BRANCH  54  79
ATOM     79  C   UNK A   0      13.455  13.766  19.084  0.00  0.00    +0.027 C 
ATOM     80  C   UNK A   0      12.349  13.320  20.009  0.00  0.00    +0.002 C 
BRANCH  79  81
ATOM     81  C   UNK A   0      14.810  13.865  19.789  0.00  0.00    +0.002 C 
ATOM     82  C   UNK A   0      14.794  14.856  20.944  0.00  0.00    +0.000 C 
ENDBRANCH  79  81
ENDBRANCH  54  79
ENDBRANCH  50  54
ENDBRANCH  49  52
ENDBRANCH  45  49
ENDBRANCH  44  47
ENDBRANCH   1  44
TORSDOF 38
REMARK  Name = ../refined-set-2016/3ok9/3ok9_pocket.pdb
REMARK  228 active torsions:
REMARK  status: ('A' for Active; 'I' for Inactive)
REMARK    1  A    between atoms: _1  and  _3
REMARK    2  A    between atoms: _3  and  _4
REMARK    3  A    between atoms: _3  and  _6
REMARK    4  A    between atoms: _6  and  _7
REMARK    5  A    between atoms: _7  and  _8
REMARK    6  A    between atoms: _8  and  _9
REMARK    7  A    between atoms: _18  and  _20
REMARK    8  A    between atoms: _20  and  _21
REMARK    9  A    between atoms: _20  and  _23
REMARK   10  A    between atoms: _23  and  _24
REMARK   11  A    between atoms: _27  and  _29
REMARK   12  A    between atoms: _29  and  _30
REMARK   13  A    between atoms: _29  and  _32
REMARK   14  A    between atoms: _32  and  _33
REMARK   15  A    between atoms: _36  and  _38
REMARK   16  A    between atoms: _38  and  _39
REMARK   17  A    between atoms: _38  and  _41
REMARK   18  A    between atoms: _41  and  _42
REMARK   19  A    between atoms: _45  and  _47
REMARK   20  A    between atoms: _47  and  _48
REMARK   21  A    between atoms: _47  and  _50
REMARK   22  A    between atoms: _50  and  _51
REMARK   23  A    between atoms: _54  and  _56
REMARK   24  A    between atoms: _56  and  _57
REMARK   25  A    between atoms: _59  and  _61
REMARK   26  A    between atoms: _61  and  _62
REMARK   27  A    between atoms: _65  and  _67
REMARK   28  A    between atoms: _67  and  _68
REMARK   29  A    between atoms: _67  and  _70
REMARK   30  A    between atoms: _70  and  _71
REMARK   31  A    between atoms: _74  and  _76
REMARK   32  A    between atoms: _76  and  _77
REMARK   33  A    between atoms: _76  and  _79
REMARK   34  A    between atoms: _79  and  _80
REMARK   35  A    between atoms: _83  and  _85
REMARK   36  A    between atoms: _85  and  _86
REMARK   37  A    between atoms: _85  and  _88
REMARK   38  A    between atoms: _88  and  _89
REMARK   39  A    between atoms: _92  and  _94
REMARK   40  A    between atoms: _94  and  _95
REMARK   41  A    between atoms: _94  and  _97
REMARK   42  A    between atoms: _100  and  _102
REMARK   43  A    between atoms: _102  and  _103
REMARK   44  A    between atoms: _102  and  _105
REMARK   45  A    between atoms: _105  and  _106
REMARK   46  A    between atoms: _106  and  _107
REMARK   47  A    between atoms: _107  and  _108
REMARK   48  A    between atoms: _108  and  _109
REMARK   49  A    between atoms: _113  and  _115
REMARK   50  A    between atoms: _115  and  _116
REMARK   51  A    between atoms: _115  and  _118
REMARK   52  A    between atoms: _118  and  _119
REMARK   53  A    between atoms: _119  and  _120
REMARK   54  A    between atoms: _122  and  _124
REMARK   55  A    between atoms: _124  and  _125
REMARK   56  A    between atoms: _124  and  _127
REMARK   57  A    between atoms: _127  and  _128
REMARK   58  A    between atoms: _131  and  _133
REMARK   59  A    between atoms: _133  and  _134
REMARK   60  A    between atoms: _136  and  _138
REMARK   61  A    between atoms: _138  and  _139
REMARK   62  A    between atoms: _141  and  _143
REMARK   63  A    between atoms: _143  and  _144
REMARK   64  A    between atoms: _143  and  _146
REMARK   65  A    between atoms: _144  and  _145
REMARK   66  A    between atoms: _144  and  _150
REMARK   67  A    between atoms: _146  and  _147
REMARK   68  A    between atoms: _150  and  _152
REMARK   69  A    between atoms: _152  and  _153
REMARK   70  A    between atoms: _155  and  _157
REMARK   71  A    between atoms: _157  and  _158
REMARK   72  A    between atoms: _160  and  _162
REMARK   73  A    between atoms: _162  and  _163
REMARK   74  A    between atoms: _162  and  _165
REMARK   75  A    between atoms: _165  and  _166
REMARK   76  A    between atoms: _172  and  _174
REMARK   77  A    between atoms: _174  and  _175
REMARK   78  A    between atoms: _174  and  _177
REMARK   79  A    between atoms: _177  and  _178
REMARK   80  A    between atoms: _181  and  _183
REMARK   81  A    between atoms: _183  and  _184
REMARK   82  A    between atoms: _183  and  _186
REMARK   83  A    between atoms: _186  and  _187
REMARK   84  A    between atoms: _190  and  _192
REMARK   85  A    between atoms: _192  and  _193
REMARK   86  A    between atoms: _192  and  _195
REMARK   87  A    between atoms: _195  and  _196
REMARK   88  A    between atoms: _200  and  _201
REMARK   89  A    between atoms: _206  and  _208
REMARK   90  A    between atoms: _208  and  _209
REMARK   91  A    between atoms: _208  and  _211
REMARK   92  A    between atoms: _214  and  _216
REMARK   93  A    between atoms: _216  and  _217
REMARK   94  A    between atoms: _216  and  _219
REMARK   95  A    between atoms: _219  and  _220
REMARK   96  A    between atoms: _225  and  _227
REMARK   97  A    between atoms: _227  and  _228
REMARK   98  A    between atoms: _227  and  _230
REMARK   99  A    between atoms: _230  and  _231
REMARK  100  A    between atoms: _234  and  _236
REMARK  101  A    between atoms: _236  and  _237
REMARK  102  A    between atoms: _239  and  _241
REMARK  103  A    between atoms: _241  and  _242
REMARK  104  A    between atoms: _241  and  _244
REMARK  105  A    between atoms: _244  and  _245
REMARK  106  A    between atoms: _245  and  _246
REMARK  107  A    between atoms: _246  and  _247
REMARK  108  A    between atoms: _256  and  _258
REMARK  109  A    between atoms: _258  and  _259
REMARK  110  A    between atoms: _258  and  _261
REMARK  111  A    between atoms: _261  and  _262
REMARK  112  A    between atoms: _267  and  _269
REMARK  113  A    between atoms: _269  and  _270
REMARK  114  A    between atoms: _269  and  _272
REMARK  115  A    between atoms: _272  and  _273
REMARK  116  A    between atoms: _273  and  _274
REMARK  117  A    between atoms: _274  and  _275
REMARK  118  A    between atoms: _284  and  _286
REMARK  119  A    between atoms: _286  and  _287
REMARK  120  A    between atoms: _286  and  _289
REMARK  121  A    between atoms: _289  and  _290
REMARK  122  A    between atoms: _293  and  _295
REMARK  123  A    between atoms: _295  and  _296
REMARK  124  A    between atoms: _295  and  _298
REMARK  125  A    between atoms: _298  and  _299
REMARK  126  A    between atoms: _302  and  _304
REMARK  127  A    between atoms: _304  and  _305
REMARK  128  A    between atoms: _304  and  _307
REMARK  129  A    between atoms: _307  and  _308
REMARK  130  A    between atoms: _311  and  _313
REMARK  131  A    between atoms: _313  and  _314
REMARK  132  A    between atoms: _313  and  _316
REMARK  133  A    between atoms: _316  and  _317
REMARK  134  A    between atoms: _320  and  _322
REMARK  135  A    between atoms: _322  and  _323
REMARK  136  A    between atoms: _325  and  _327
REMARK  137  A    between atoms: _327  and  _328
REMARK  138  A    between atoms: _331  and  _333
REMARK  139  A    between atoms: _333  and  _334
REMARK  140  A    between atoms: _333  and  _336
REMARK  141  A    between atoms: _336  and  _337
REMARK  142  A    between atoms: _340  and  _342
REMARK  143  A    between atoms: _342  and  _343
REMARK  144  A    between atoms: _342  and  _345
REMARK  145  A    between atoms: _345  and  _346
REMARK  146  A    between atoms: _349  and  _351
REMARK  147  A    between atoms: _351  and  _352
REMARK  148  A    between atoms: _351  and  _354
REMARK  149  A    between atoms: _354  and  _355
REMARK  150  A    between atoms: _358  and  _360
REMARK  151  A    between atoms: _360  and  _361
REMARK  152  A    between atoms: _360  and  _363
REMARK  153  A    between atoms: _366  and  _368
REMARK  154  A    between atoms: _368  and  _369
REMARK  155  A    between atoms: _368  and  _371
REMARK  156  A    between atoms: _371  and  _372
REMARK  157  A    between atoms: _372  and  _373
REMARK  158  A    between atoms: _373  and  _374
REMARK  159  A    between atoms: _374  and  _375
REMARK  160  A    between atoms: _379  and  _381
REMARK  161  A    between atoms: _381  and  _382
REMARK  162  A    between atoms: _381  and  _384
REMARK  163  A    between atoms: _384  and  _385
REMARK  164  A    between atoms: _385  and  _386
REMARK  165  A    between atoms: _388  and  _390
REMARK  166  A    between atoms: _390  and  _391
REMARK  167  A    between atoms: _390  and  _393
REMARK  168  A    between atoms: _393  and  _394
REMARK  169  A    between atoms: _397  and  _399
REMARK  170  A    between atoms: _399  and  _400
REMARK  171  A    between atoms: _402  and  _404
REMARK  172  A    between atoms: _404  and  _405
REMARK  173  A    between atoms: _407  and  _409
REMARK  174  A    between atoms: _409  and  _410
REMARK  175  A    between atoms: _409  and  _412
REMARK  176  A    between atoms: _412  and  _413
REMARK  177  A    between atoms: _416  and  _418
REMARK  178  A    between atoms: _418  and  _419
REMARK  179  A    between atoms: _421  and  _423
REMARK  180  A    between atoms: _423  and  _424
REMARK  181  A    between atoms: _426  and  _428
REMARK  182  A    between atoms: _428  and  _429
REMARK  183  A    between atoms: _428  and  _431
REMARK  184  A    between atoms: _431  and  _432
REMARK  185  A    between atoms: _438  and  _440
REMARK  186  A    between atoms: _440  and  _441
REMARK  187  A    between atoms: _440  and  _443
REMARK  188  A    between atoms: _443  and  _444
REMARK  189  A    between atoms: _447  and  _449
REMARK  190  A    between atoms: _449  and  _450
REMARK  191  A    between atoms: _449  and  _452
REMARK  192  A    between atoms: _455  and  _457
REMARK  193  A    between atoms: _457  and  _458
REMARK  194  A    between atoms: _457  and  _460
REMARK  195  A    between atoms: _460  and  _461
REMARK  196  A    between atoms: _465  and  _466
REMARK  197  A    between atoms: _471  and  _473
REMARK  198  A    between atoms: _473  and  _474
REMARK  199  A    between atoms: _473  and  _476
REMARK  200  A    between atoms: _476  and  _477
REMARK  201  A    between atoms: _481  and  _482
REMARK  202  A    between atoms: _487  and  _489
REMARK  203  A    between atoms: _489  and  _490
REMARK  204  A    between atoms: _489  and  _492
REMARK  205  A    between atoms: _495  and  _497
REMARK  206  A    between atoms: _497  and  _498
REMARK  207  A    between atoms: _497  and  _500
REMARK  208  A    between atoms: _500  and  _501
REMARK  209  A    between atoms: _506  and  _508
REMARK  210  A    between atoms: _508  and  _509
REMARK  211  A    between atoms: _508  and  _511
REMARK  212  A    between atoms: _511  and  _512
REMARK  213  A    between atoms: _515  and  _517
REMARK  214  A    between atoms: _517  and  _518
REMARK  215  A    between atoms: _517  and  _520
REMARK  216  A    between atoms: _520  and  _521
REMARK  217  A    between atoms: _524  and  _526
REMARK  218  A    between atoms: _526  and  _527
REMARK  219  A    between atoms: _529  and  _531
REMARK  220  A    between atoms: _531  and  _532
REMARK  221  A    between atoms: _531  and  _534
REMARK  222  A    between atoms: _534  and  _535
REMARK  223  A    between atoms: _535  and  _536
REMARK  224  A    between atoms: _536  and  _537
REMARK  225  A    between atoms: _546  and  _548
REMARK  226  A    between atoms: _548  and  _549
REMARK  227  A    between atoms: _548  and  _551
REMARK  228  A    between atoms: _551  and  _552
REMARK                            x       y       z     vdW  Elec       q    Type
REMARK                         _______ _______ _______ _____ _____    ______ ____
ROOT
ATOM      1  CA  LEU A   1      13.275  13.236  27.148  0.00  0.00    +0.133 C 
ENDROOT
BRANCH   1   2
ATOM      2  N   LEU A   1      12.433  14.110  27.948  0.00  0.00    -0.239 NA
ATOM      3  H   LEU A   1      12.315  15.100  27.653  0.00  0.00    +0.142 HD
ENDBRANCH   1   2
BRANCH   1   4
ATOM      4  C   LEU A   1      14.710  13.452  27.601  0.00  0.00    +0.224 C 
ATOM      5  O   LEU A   1      15.116  14.624  27.758  0.00  0.00    -0.287 OA
ENDBRANCH   1   4
BRANCH   1   6
ATOM      6  CB  LEU A   1      13.125  13.541  25.650  0.00  0.00    +0.025 C 
BRANCH   6   7
ATOM      7  CG  LEU A   1      11.696  13.575  25.111  0.00  0.00    +0.002 C 
ATOM      8  CD2 LEU A   1      10.995  12.268  25.377  0.00  0.00    +0.000 C 
ATOM      9  CD1 LEU A   1      11.672  13.928  23.628  0.00  0.00    +0.000 C 
ENDBRANCH   6   7
ENDBRANCH   1   6
TORSDOF 4
REMARK  Name = ../refined-set-2016/3ok9/3ok9_pocket.pdb
REMARK  228 active torsions:
REMARK  status: ('A' for Active; 'I' for Inactive)
REMARK    1  A    between atoms: _1  and  _3
REMARK    2  A    between atoms: _3  and  _4
REMARK    3  A    between atoms: _3  and  _6
REMARK    4  A    between atoms: _6  and  _7
REMARK    5  A    between atoms: _7  and  _8
REMARK    6  A    between atoms: _8  and  _9
REMARK    7  A    between atoms: _18  and  _20
REMARK    8  A    between atoms: _20  and  _21
REMARK    9  A    between atoms: _20  and  _23
REMARK   10  A    between atoms: _23  and  _24
REMARK   11  A    between atoms: _27  and  _29
REMARK   12  A    between atoms: _29  and  _30
REMARK   13  A    between atoms: _29  and  _32
REMARK   14  A    between atoms: _32  and  _33
REMARK   15  A    between atoms: _36  and  _38
REMARK   16  A    between atoms: _38  and  _39
REMARK   17  A    between atoms: _38  and  _41
REMARK   18  A    between atoms: _41  and  _42
REMARK   19  A    between atoms: _45  and  _47
REMARK   20  A    between atoms: _47  and  _48
REMARK   21  A    between atoms: _47  and  _50
REMARK   22  A    between atoms: _50  and  _51
REMARK   23  A    between atoms: _54  and  _56
REMARK   24  A    between atoms: _56  and  _57
REMARK   25  A    between atoms: _59  and  _61
REMARK   26  A    between atoms: _61  and  _62
REMARK   27  A    between atoms: _65  and  _67
REMARK   28  A    between atoms: _67  and  _68
REMARK   29  A    between atoms: _67  and  _70
REMARK   30  A    between atoms: _70  and  _71
REMARK   31  A    between atoms: _74  and  _76
REMARK   32  A    between atoms: _76  and  _77
REMARK   33  A    between atoms: _76  and  _79
REMARK   34  A    between atoms: _79  and  _80
REMARK   35  A    between atoms: _83  and  _85
REMARK   36  A    between atoms: _85  and  _86
REMARK   37  A    between atoms: _85  and  _88
REMARK   38  A    between atoms: _88  and  _89
REMARK   39  A    between atoms: _92  and  _94
REMARK   40  A    between atoms: _94  and  _95
REMARK   41  A    between atoms: _94  and  _97
REMARK   42  A    between atoms: _100  and  _102
REMARK   43  A    between atoms: _102  and  _103
REMARK   44  A    between atoms: _102  and  _105
REMARK   45  A    between atoms: _105  and  _106
REMARK   46  A    between atoms: _106  and  _107
REMARK   47  A    between atoms: _107  and  _108
REMARK   48  A    between atoms: _108  and  _109
REMARK   49  A    between atoms: _113  and  _115
REMARK   50  A    between atoms: _115  and  _116
REMARK   51  A    between atoms: _115  and  _118
REMARK   52  A    between atoms: _118  and  _119
REMARK   53  A    between atoms: _119  and  _120
REMARK   54  A    between atoms: _122  and  _124
REMARK   55  A    between atoms: _124  and  _125
REMARK   56  A    between atoms: _124  and  _127
REMARK   57  A    between atoms: _127  and  _128
REMARK   58  A    between atoms: _131  and  _133
REMARK   59  A    between atoms: _133  and  _134
REMARK   60  A    between atoms: _136  and  _138
REMARK   61  A    between atoms: _138  and  _139
REMARK   62  A    between atoms: _141  and  _143
REMARK   63  A    between atoms: _143  and  _144
REMARK   64  A    between atoms: _143  and  _146
REMARK   65  A    between atoms: _144  and  _145
REMARK   66  A    between atoms: _144  and  _150
REMARK   67  A    between atoms: _146  and  _147
REMARK   68  A    between atoms: _150  and  _152
REMARK   69  A    between atoms: _152  and  _153
REMARK   70  A    between atoms: _155  and  _157
REMARK   71  A    between atoms: _157  and  _158
REMARK   72  A    between atoms: _160  and  _162
REMARK   73  A    between atoms: _162  and  _163
REMARK   74  A    between atoms: _162  and  _165
REMARK   75  A    between atoms: _165  and  _166
REMARK   76  A    between atoms: _172  and  _174
REMARK   77  A    between atoms: _174  and  _175
REMARK   78  A    between atoms: _174  and  _177
REMARK   79  A    between atoms: _177  and  _178
REMARK   80  A    between atoms: _181  and  _183
REMARK   81  A    between atoms: _183  and  _184
REMARK   82  A    between atoms: _183  and  _186
REMARK   83  A    between atoms: _186  and  _187
REMARK   84  A    between atoms: _190  and  _192
REMARK   85  A    between atoms: _192  and  _193
REMARK   86  A    between atoms: _192  and  _195
REMARK   87  A    between atoms: _195  and  _196
REMARK   88  A    between atoms: _200  and  _201
REMARK   89  A    between atoms: _206  and  _208
REMARK   90  A    between atoms: _208  and  _209
REMARK   91  A    between atoms: _208  and  _211
REMARK   92  A    between atoms: _214  and  _216
REMARK   93  A    between atoms: _216  and  _217
REMARK   94  A    between atoms: _216  and  _219
REMARK   95  A    between atoms: _219  and  _220
REMARK   96  A    between atoms: _225  and  _227
REMARK   97  A    between atoms: _227  and  _228
REMARK   98  A    between atoms: _227  and  _230
REMARK   99  A    between atoms: _230  and  _231
REMARK  100  A    between atoms: _234  and  _236
REMARK  101  A    between atoms: _236  and  _237
REMARK  102  A    between atoms: _239  and  _241
REMARK  103  A    between atoms: _241  and  _242
REMARK  104  A    between atoms: _241  and  _244
REMARK  105  A    between atoms: _244  and  _245
REMARK  106  A    between atoms: _245  and  _246
REMARK  107  A    between atoms: _246  and  _247
REMARK  108  A    between atoms: _256  and  _258
REMARK  109  A    between atoms: _258  and  _259
REMARK  110  A    between atoms: _258  and  _261
REMARK  111  A    between atoms: _261  and  _262
REMARK  112  A    between atoms: _267  and  _269
REMARK  113  A    between atoms: _269  and  _270
REMARK  114  A    between atoms: _269  and  _272
REMARK  115  A    between atoms: _272  and  _273
REMARK  116  A    between atoms: _273  and  _274
REMARK  117  A    between atoms: _274  and  _275
REMARK  118  A    between atoms: _284  and  _286
REMARK  119  A    between atoms: _286  and  _287
REMARK  120  A    between atoms: _286  and  _289
REMARK  121  A    between atoms: _289  and  _290
REMARK  122  A    between atoms: _293  and  _295
REMARK  123  A    between atoms: _295  and  _296
REMARK  124  A    between atoms: _295  and  _298
REMARK  125  A    between atoms: _298  and  _299
REMARK  126  A    between atoms: _302  and  _304
REMARK  127  A    between atoms: _304  and  _305
REMARK  128  A    between atoms: _304  and  _307
REMARK  129  A    between atoms: _307  and  _308
REMARK  130  A    between atoms: _311  and  _313
REMARK  131  A    between atoms: _313  and  _314
REMARK  132  A    between atoms: _313  and  _316
REMARK  133  A    between atoms: _316  and  _317
REMARK  134  A    between atoms: _320  and  _322
REMARK  135  A    between atoms: _322  and  _323
REMARK  136  A    between atoms: _325  and  _327
REMARK  137  A    between atoms: _327  and  _328
REMARK  138  A    between atoms: _331  and  _333
REMARK  139  A    between atoms: _333  and  _334
REMARK  140  A    between atoms: _333  and  _336
REMARK  141  A    between atoms: _336  and  _337
REMARK  142  A    between atoms: _340  and  _342
REMARK  143  A    between atoms: _342  and  _343
REMARK  144  A    between atoms: _342  and  _345
REMARK  145  A    between atoms: _345  and  _346
REMARK  146  A    between atoms: _349  and  _351
REMARK  147  A    between atoms: _351  and  _352
REMARK  148  A    between atoms: _351  and  _354
REMARK  149  A    between atoms: _354  and  _355
REMARK  150  A    between atoms: _358  and  _360
REMARK  151  A    between atoms: _360  and  _361
REMARK  152  A    between atoms: _360  and  _363
REMARK  153  A    between atoms: _366  and  _368
REMARK  154  A    between atoms: _368  and  _369
REMARK  155  A    between atoms: _368  and  _371
REMARK  156  A    between atoms: _371  and  _372
REMARK  157  A    between atoms: _372  and  _373
REMARK  158  A    between atoms: _373  and  _374
REMARK  159  A    between atoms: _374  and  _375
REMARK  160  A    between atoms: _379  and  _381
REMARK  161  A    between atoms: _381  and  _382
REMARK  162  A    between atoms: _381  and  _384
REMARK  163  A    between atoms: _384  and  _385
REMARK  164  A    between atoms: _385  and  _386
REMARK  165  A    between atoms: _388  and  _390
REMARK  166  A    between atoms: _390  and  _391
REMARK  167  A    between atoms: _390  and  _393
REMARK  168  A    between atoms: _393  and  _394
REMARK  169  A    between atoms: _397  and  _399
REMARK  170  A    between atoms: _399  and  _400
REMARK  171  A    between atoms: _402  and  _404
REMARK  172  A    between atoms: _404  and  _405
REMARK  173  A    between atoms: _407  and  _409
REMARK  174  A    between atoms: _409  and  _410
REMARK  175  A    between atoms: _409  and  _412
REMARK  176  A    between atoms: _412  and  _413
REMARK  177  A    between atoms: _416  and  _418
REMARK  178  A    between atoms: _418  and  _419
REMARK  179  A    between atoms: _421  and  _423
REMARK  180  A    between atoms: _423  and  _424
REMARK  181  A    between atoms: _426  and  _428
REMARK  182  A    between atoms: _428  and  _429
REMARK  183  A    between atoms: _428  and  _431
REMARK  184  A    between atoms: _431  and  _432
REMARK  185  A    between atoms: _438  and  _440
REMARK  186  A    between atoms: _440  and  _441
REMARK  187  A    between atoms: _440  and  _443
REMARK  188  A    between atoms: _443  and  _444
REMARK  189  A    between atoms: _447  and  _449
REMARK  190  A    between atoms: _449  and  _450
REMARK  191  A    between atoms: _449  and  _452
REMARK  192  A    between atoms: _455  and  _457
REMARK  193  A    between atoms: _457  and  _458
REMARK  194  A    between atoms: _457  and  _460
REMARK  195  A    between atoms: _460  and  _461
REMARK  196  A    between atoms: _465  and  _466
REMARK  197  A    between atoms: _471  and  _473
REMARK  198  A    between atoms: _473  and  _474
REMARK  199  A    between atoms: _473  and  _476
REMARK  200  A    between atoms: _476  and  _477
REMARK  201  A    between atoms: _481  and  _482
REMARK  202  A    between atoms: _487  and  _489
REMARK  203  A    between atoms: _489  and  _490
REMARK  204  A    between atoms: _489  and  _492
REMARK  205  A    between atoms: _495  and  _497
REMARK  206  A    between atoms: _497  and  _498
REMARK  207  A    between atoms: _497  and  _500
REMARK  208  A    between atoms: _500  and  _501
REMARK  209  A    between atoms: _506  and  _508
REMARK  210  A    between atoms: _508  and  _509
REMARK  211  A    between atoms: _508  and  _511
REMARK  212  A    between atoms: _511  and  _512
REMARK  213  A    between atoms: _515  and  _517
REMARK  214  A    between atoms: _517  and  _518
REMARK  215  A    between atoms: _517  and  _520
REMARK  216  A    between atoms: _520  and  _521
REMARK  217  A    between atoms: _524  and  _526
REMARK  218  A    between atoms: _526  and  _527
REMARK  219  A    between atoms: _529  and  _531
REMARK  220  A    between atoms: _531  and  _532
REMARK  221  A    between atoms: _531  and  _534
REMARK  222  A    between atoms: _534  and  _535
REMARK  223  A    between atoms: _535  and  _536
REMARK  224  A    between atoms: _536  and  _537
REMARK  225  A    between atoms: _546  and  _548
REMARK  226  A    between atoms: _548  and  _549
REMARK  227  A    between atoms: _548  and  _551
REMARK  228  A    between atoms: _551  and  _552
REMARK                            x       y       z     vdW  Elec       q    Type
REMARK                         _______ _______ _______ _____ _____    ______ ____
ROOT
ATOM      1  CA  VAL A   3      21.801  21.844  25.572  0.00  0.00    +0.149 C 
ENDROOT
BRANCH   1   4
ATOM      2  C   PRO A   2      23.436  20.553  24.324  0.00  0.00    +0.241 C 
ATOM      3  O   PRO A   2      24.380  21.102  24.912  0.00  0.00    -0.273 OA
ATOM      4  N   VAL A   3      22.164  20.815  24.593  0.00  0.00    -0.297 N 
ATOM      5  H   VAL A   3      21.415  20.284  24.104  0.00  0.00    +0.150 HD
BRANCH   2   9
ATOM      6  C   THR A   1      22.180  17.722  23.698  0.00  0.00    +0.244 C 
ATOM      7  O   THR A   1      22.801  17.534  24.751  0.00  0.00    -0.273 OA
ATOM      8  N   PRO A   2      22.553  18.680  22.865  0.00  0.00    -0.272 N 
ATOM      9  CA  PRO A   2      23.677  19.544  23.208  0.00  0.00    +0.152 C 
ATOM     10  CB  PRO A   2      23.889  20.337  21.916  0.00  0.00    +0.031 C 
ATOM     11  CG  PRO A   2      22.610  20.277  21.160  0.00  0.00    +0.024 C 
ATOM     12  CD  PRO A   2      21.990  18.954  21.541  0.00  0.00    +0.094 C 
BRANCH   6  13
ATOM     13  CA  THR A   1      21.004  16.844  23.294  0.00  0.00    +0.172 C 
BRANCH  13  14
ATOM     14  CB  THR A   1      19.674  17.370  23.858  0.00  0.00    +0.135 C 
ATOM     15  CG2 THR A   1      19.631  17.323  25.377  0.00  0.00    +0.034 C 
BRANCH  14  16
ATOM     16  OG1 THR A   1      19.539  18.747  23.460  0.00  0.00    -0.383 OA
ATOM     17  HG1 THR A   1      20.297  19.270  23.823  0.00  0.00    +0.210 HD
ENDBRANCH  14  16
ENDBRANCH  13  14
BRANCH  13  18
ATOM     18  N   THR A   1      21.307  15.497  23.753  0.00  0.00    -0.236 NA
ATOM     19  H   THR A   1      20.843  15.139  24.612  0.00  0.00    +0.142 HD
ENDBRANCH  13  18
ENDBRANCH   6  13
ENDBRANCH   2   9
ENDBRANCH   1   4
BRANCH   1  20
ATOM     20  C   VAL A   3      20.471  21.383  26.142  0.00  0.00    +0.241 C 
ATOM     21  N   ASN A   4      20.113  21.808  27.319  0.00  0.00    -0.297 N 
ATOM     22  H   ASN A   4      20.766  22.403  27.868  0.00  0.00    +0.150 HD
ATOM     23  O   VAL A   3      19.788  20.613  25.462  0.00  0.00    -0.273 OA
BRANCH  21  24
ATOM     24  CA  ASN A   4      18.826  21.468  27.875  0.00  0.00    +0.158 C 
BRANCH  24  25
ATOM     25  C   ASN A   4      17.792  22.393  27.216  0.00  0.00    +0.241 C 
ATOM     26  O   ASN A   4      18.006  23.617  27.196  0.00  0.00    -0.273 OA
ATOM     27  N   ILE A   5      16.716  21.820  26.704  0.00  0.00    -0.298 N 
ATOM     28  H   ILE A   5      16.590  20.791  26.789  0.00  0.00    +0.150 HD
BRANCH  27  29
ATOM     29  CA  ILE A   5      15.702  22.620  26.020  0.00  0.00    +0.137 C 
BRANCH  29  30
ATOM     30  CB  ILE A   5      15.629  22.467  24.485  0.00  0.00    +0.026 C 
ATOM     31  CG2 ILE A   5      16.882  23.037  23.813  0.00  0.00    +0.002 C 
BRANCH  30  32
ATOM     32  CG1 ILE A   5      15.401  21.068  23.933  0.00  0.00    +0.002 C 
ATOM     33  CD1 ILE A   5      15.404  20.880  22.440  0.00  0.00    +0.000 C 
ENDBRANCH  30  32
ENDBRANCH  29  30
BRANCH  29  34
ATOM     34  C   ILE A   5      14.328  22.324  26.647  0.00  0.00    +0.227 C 
ATOM     35  O   ILE A   5      13.942  21.150  26.872  0.00  0.00    -0.286 OA
ENDBRANCH  29  34
ENDBRANCH  27  29
ENDBRANCH  24  25
BRANCH  24  36
ATOM     36  CB  ASN A   4      18.850  21.644  29.363  0.00  0.00    +0.114 C 
BRANCH  36  37
ATOM     37  CG  ASN A   4      19.841  20.780  30.111  0.00  0.00    +0.222 C 
ATOM     38  ND2 ASN A   4      20.527  21.329  31.094  0.00  0.00    -0.329 N 
ATOM     39 HD21 ASN A   4      21.221  20.763  31.623  0.00  0.00    +0.145 HD
ATOM     40 HD22 ASN A   4      20.374  22.328  31.340  0.00  0.00    +0.145 HD
ATOM     41  OD1 ASN A   4      19.961  19.588  29.749  0.00  0.00    -0.275 OA
ENDBRANCH  36  37
ENDBRANCH  24  36
ENDBRANCH  21  24
ENDBRANCH   1  20
BRANCH   1  42
ATOM     42  CB  VAL A   3      21.653  23.245  24.992  0.00  0.00    +0.027 C 
ATOM     43  CG2 VAL A   3      21.525  24.306  26.078  0.00  0.00    +0.002 C 
ATOM     44  CG1 VAL A   3      20.426  23.287  24.078  0.00  0.00    +0.002 C 
ENDBRANCH   1  42
TORSDOF 16
REMARK  Name = ../refined-set-2016/3ok9/3ok9_pocket.pdb
REMARK  228 active torsions:
REMARK  status: ('A' for Active; 'I' for Inactive)
REMARK    1  A    between atoms: _1  and  _3
REMARK    2  A    between atoms: _3  and  _4
REMARK    3  A    between atoms: _3  and  _6
REMARK    4  A    between atoms: _6  and  _7
REMARK    5  A    between atoms: _7  and  _8
REMARK    6  A    between atoms: _8  and  _9
REMARK    7  A    between atoms: _18  and  _20
REMARK    8  A    between atoms: _20  and  _21
REMARK    9  A    between atoms: _20  and  _23
REMARK   10  A    between atoms: _23  and  _24
REMARK   11  A    between atoms: _27  and  _29
REMARK   12  A    between atoms: _29  and  _30
REMARK   13  A    between atoms: _29  and  _32
REMARK   14  A    between atoms: _32  and  _33
REMARK   15  A    between atoms: _36  and  _38
REMARK   16  A    between atoms: _38  and  _39
REMARK   17  A    between atoms: _38  and  _41
REMARK   18  A    between atoms: _41  and  _42
REMARK   19  A    between atoms: _45  and  _47
REMARK   20  A    between atoms: _47  and  _48
REMARK   21  A    between atoms: _47  and  _50
REMARK   22  A    between atoms: _50  and  _51
REMARK   23  A    between atoms: _54  and  _56
REMARK   24  A    between atoms: _56  and  _57
REMARK   25  A    between atoms: _59  and  _61
REMARK   26  A    between atoms: _61  and  _62
REMARK   27  A    between atoms: _65  and  _67
REMARK   28  A    between atoms: _67  and  _68
REMARK   29  A    between atoms: _67  and  _70
REMARK   30  A    between atoms: _70  and  _71
REMARK   31  A    between atoms: _74  and  _76
REMARK   32  A    between atoms: _76  and  _77
REMARK   33  A    between atoms: _76  and  _79
REMARK   34  A    between atoms: _79  and  _80
REMARK   35  A    between atoms: _83  and  _85
REMARK   36  A    between atoms: _85  and  _86
REMARK   37  A    between atoms: _85  and  _88
REMARK   38  A    between atoms: _88  and  _89
REMARK   39  A    between atoms: _92  and  _94
REMARK   40  A    between atoms: _94  and  _95
REMARK   41  A    between atoms: _94  and  _97
REMARK   42  A    between atoms: _100  and  _102
REMARK   43  A    between atoms: _102  and  _103
REMARK   44  A    between atoms: _102  and  _105
REMARK   45  A    between atoms: _105  and  _106
REMARK   46  A    between atoms: _106  and  _107
REMARK   47  A    between atoms: _107  and  _108
REMARK   48  A    between atoms: _108  and  _109
REMARK   49  A    between atoms: _113  and  _115
REMARK   50  A    between atoms: _115  and  _116
REMARK   51  A    between atoms: _115  and  _118
REMARK   52  A    between atoms: _118  and  _119
REMARK   53  A    between atoms: _119  and  _120
REMARK   54  A    between atoms: _122  and  _124
REMARK   55  A    between atoms: _124  and  _125
REMARK   56  A    between atoms: _124  and  _127
REMARK   57  A    between atoms: _127  and  _128
REMARK   58  A    between atoms: _131  and  _133
REMARK   59  A    between atoms: _133  and  _134
REMARK   60  A    between atoms: _136  and  _138
REMARK   61  A    between atoms: _138  and  _139
REMARK   62  A    between atoms: _141  and  _143
REMARK   63  A    between atoms: _143  and  _144
REMARK   64  A    between atoms: _143  and  _146
REMARK   65  A    between atoms: _144  and  _145
REMARK   66  A    between atoms: _144  and  _150
REMARK   67  A    between atoms: _146  and  _147
REMARK   68  A    between atoms: _150  and  _152
REMARK   69  A    between atoms: _152  and  _153
REMARK   70  A    between atoms: _155  and  _157
REMARK   71  A    between atoms: _157  and  _158
REMARK   72  A    between atoms: _160  and  _162
REMARK   73  A    between atoms: _162  and  _163
REMARK   74  A    between atoms: _162  and  _165
REMARK   75  A    between atoms: _165  and  _166
REMARK   76  A    between atoms: _172  and  _174
REMARK   77  A    between atoms: _174  and  _175
REMARK   78  A    between atoms: _174  and  _177
REMARK   79  A    between atoms: _177  and  _178
REMARK   80  A    between atoms: _181  and  _183
REMARK   81  A    between atoms: _183  and  _184
REMARK   82  A    between atoms: _183  and  _186
REMARK   83  A    between atoms: _186  and  _187
REMARK   84  A    between atoms: _190  and  _192
REMARK   85  A    between atoms: _192  and  _193
REMARK   86  A    between atoms: _192  and  _195
REMARK   87  A    between atoms: _195  and  _196
REMARK   88  A    between atoms: _200  and  _201
REMARK   89  A    between atoms: _206  and  _208
REMARK   90  A    between atoms: _208  and  _209
REMARK   91  A    between atoms: _208  and  _211
REMARK   92  A    between atoms: _214  and  _216
REMARK   93  A    between atoms: _216  and  _217
REMARK   94  A    between atoms: _216  and  _219
REMARK   95  A    between atoms: _219  and  _220
REMARK   96  A    between atoms: _225  and  _227
REMARK   97  A    between atoms: _227  and  _228
REMARK   98  A    between atoms: _227  and  _230
REMARK   99  A    between atoms: _230  and  _231
REMARK  100  A    between atoms: _234  and  _236
REMARK  101  A    between atoms: _236  and  _237
REMARK  102  A    between atoms: _239  and  _241
REMARK  103  A    between atoms: _241  and  _242
REMARK  104  A    between atoms: _241  and  _244
REMARK  105  A    between atoms: _244  and  _245
REMARK  106  A    between atoms: _245  and  _246
REMARK  107  A    between atoms: _246  and  _247
REMARK  108  A    between atoms: _256  and  _258
REMARK  109  A    between atoms: _258  and  _259
REMARK  110  A    between atoms: _258  and  _261
REMARK  111  A    between atoms: _261  and  _262
REMARK  112  A    between atoms: _267  and  _269
REMARK  113  A    between atoms: _269  and  _270
REMARK  114  A    between atoms: _269  and  _272
REMARK  115  A    between atoms: _272  and  _273
REMARK  116  A    between atoms: _273  and  _274
REMARK  117  A    between atoms: _274  and  _275
REMARK  118  A    between atoms: _284  and  _286
REMARK  119  A    between atoms: _286  and  _287
REMARK  120  A    between atoms: _286  and  _289
REMARK  121  A    between atoms: _289  and  _290
REMARK  122  A    between atoms: _293  and  _295
REMARK  123  A    between atoms: _295  and  _296
REMARK  124  A    between atoms: _295  and  _298
REMARK  125  A    between atoms: _298  and  _299
REMARK  126  A    between atoms: _302  and  _304
REMARK  127  A    between atoms: _304  and  _305
REMARK  128  A    between atoms: _304  and  _307
REMARK  129  A    between atoms: _307  and  _308
REMARK  130  A    between atoms: _311  and  _313
REMARK  131  A    between atoms: _313  and  _314
REMARK  132  A    between atoms: _313  and  _316
REMARK  133  A    between atoms: _316  and  _317
REMARK  134  A    between atoms: _320  and  _322
REMARK  135  A    between atoms: _322  and  _323
REMARK  136  A    between atoms: _325  and  _327
REMARK  137  A    between atoms: _327  and  _328
REMARK  138  A    between atoms: _331  and  _333
REMARK  139  A    between atoms: _333  and  _334
REMARK  140  A    between atoms: _333  and  _336
REMARK  141  A    between atoms: _336  and  _337
REMARK  142  A    between atoms: _340  and  _342
REMARK  143  A    between atoms: _342  and  _343
REMARK  144  A    between atoms: _342  and  _345
REMARK  145  A    between atoms: _345  and  _346
REMARK  146  A    between atoms: _349  and  _351
REMARK  147  A    between atoms: _351  and  _352
REMARK  148  A    between atoms: _351  and  _354
REMARK  149  A    between atoms: _354  and  _355
REMARK  150  A    between atoms: _358  and  _360
REMARK  151  A    between atoms: _360  and  _361
REMARK  152  A    between atoms: _360  and  _363
REMARK  153  A    between atoms: _366  and  _368
REMARK  154  A    between atoms: _368  and  _369
REMARK  155  A    between atoms: _368  and  _371
REMARK  156  A    between atoms: _371  and  _372
REMARK  157  A    between atoms: _372  and  _373
REMARK  158  A    between atoms: _373  and  _374
REMARK  159  A    between atoms: _374  and  _375
REMARK  160  A    between atoms: _379  and  _381
REMARK  161  A    between atoms: _381  and  _382
REMARK  162  A    between atoms: _381  and  _384
REMARK  163  A    between atoms: _384  and  _385
REMARK  164  A    between atoms: _385  and  _386
REMARK  165  A    between atoms: _388  and  _390
REMARK  166  A    between atoms: _390  and  _391
REMARK  167  A    between atoms: _390  and  _393
REMARK  168  A    between atoms: _393  and  _394
REMARK  169  A    between atoms: _397  and  _399
REMARK  170  A    between atoms: _399  and  _400
REMARK  171  A    between atoms: _402  and  _404
REMARK  172  A    between atoms: _404  and  _405
REMARK  173  A    between atoms: _407  and  _409
REMARK  174  A    between atoms: _409  and  _410
REMARK  175  A    between atoms: _409  and  _412
REMARK  176  A    between atoms: _412  and  _413
REMARK  177  A    between atoms: _416  and  _418
REMARK  178  A    between atoms: _418  and  _419
REMARK  179  A    between atoms: _421  and  _423
REMARK  180  A    between atoms: _423  and  _424
REMARK  181  A    between atoms: _426  and  _428
REMARK  182  A    between atoms: _428  and  _429
REMARK  183  A    between atoms: _428  and  _431
REMARK  184  A    between atoms: _431  and  _432
REMARK  185  A    between atoms: _438  and  _440
REMARK  186  A    between atoms: _440  and  _441
REMARK  187  A    between atoms: _440  and  _443
REMARK  188  A    between atoms: _443  and  _444
REMARK  189  A    between atoms: _447  and  _449
REMARK  190  A    between atoms: _449  and  _450
REMARK  191  A    between atoms: _449  and  _452
REMARK  192  A    between atoms: _455  and  _457
REMARK  193  A    between atoms: _457  and  _458
REMARK  194  A    between atoms: _457  and  _460
REMARK  195  A    between atoms: _460  and  _461
REMARK  196  A    between atoms: _465  and  _466
REMARK  197  A    between atoms: _471  and  _473
REMARK  198  A    between atoms: _473  and  _474
REMARK  199  A    between atoms: _473  and  _476
REMARK  200  A    between atoms: _476  and  _477
REMARK  201  A    between atoms: _481  and  _482
REMARK  202  A    between atoms: _487  and  _489
REMARK  203  A    between atoms: _489  and  _490
REMARK  204  A    between atoms: _489  and  _492
REMARK  205  A    between atoms: _495  and  _497
REMARK  206  A    between atoms: _497  and  _498
REMARK  207  A    between atoms: _497  and  _500
REMARK  208  A    between atoms: _500  and  _501
REMARK  209  A    between atoms: _506  and  _508
REMARK  210  A    between atoms: _508  and  _509
REMARK  211  A    between atoms: _508  and  _511
REMARK  212  A    between atoms: _511  and  _512
REMARK  213  A    between atoms: _515  and  _517
REMARK  214  A    between atoms: _517  and  _518
REMARK  215  A    between atoms: _517  and  _520
REMARK  216  A    between atoms: _520  and  _521
REMARK  217  A    between atoms: _524  and  _526
REMARK  218  A    between atoms: _526  and  _527
REMARK  219  A    between atoms: _529  and  _531
REMARK  220  A    between atoms: _531  and  _532
REMARK  221  A    between atoms: _531  and  _534
REMARK  222  A    between atoms: _534  and  _535
REMARK  223  A    between atoms: _535  and  _536
REMARK  224  A    between atoms: _536  and  _537
REMARK  225  A    between atoms: _546  and  _548
REMARK  226  A    between atoms: _548  and  _549
REMARK  227  A    between atoms: _548  and  _551
REMARK  228  A    between atoms: _551  and  _552
REMARK                            x       y       z     vdW  Elec       q    Type
REMARK                         _______ _______ _______ _____ _____    ______ ____
ROOT
ATOM      1  CA  ARG A   2       6.153  23.379  24.091  0.00  0.00    +0.149 C 
ENDROOT
BRANCH   1   4
ATOM      2  C   GLY A   1       8.333  22.875  24.996  0.00  0.00    +0.240 C 
ATOM      3  O   GLY A   1       8.000  23.122  26.155  0.00  0.00    -0.274 OA
ATOM      4  N   ARG A   2       7.512  22.873  23.945  0.00  0.00    -0.297 N 
ATOM      5  H   ARG A   2       7.840  22.512  23.026  0.00  0.00    +0.150 HD
BRANCH   2   6
ATOM      6  CA  GLY A   1       9.779  22.580  24.657  0.00  0.00    +0.169 C 
BRANCH   6   7
ATOM      7  N   GLY A   1      10.647  22.541  25.805  0.00  0.00    -0.236 NA
ATOM      8  H   GLY A   1      10.716  21.653  26.342  0.00  0.00    +0.142 HD
ENDBRANCH   6   7
ENDBRANCH   2   6
ENDBRANCH   1   4
BRANCH   1   9
ATOM      9  C   ARG A   2       5.342  22.558  25.046  0.00  0.00    +0.241 C 
ATOM     10  O   ARG A   2       4.417  23.087  25.697  0.00  0.00    -0.273 OA
ATOM     11  N   ASN A   3       5.659  21.269  25.243  0.00  0.00    -0.298 N 
ATOM     12  H   ASN A   3       6.450  20.840  24.721  0.00  0.00    +0.150 HD
BRANCH  11  13
ATOM     13  CA  ASN A   3       4.886  20.469  26.196  0.00  0.00    +0.146 C 
BRANCH  13  14
ATOM     14  C   ASN A   3       4.924  21.058  27.596  0.00  0.00    +0.227 C 
ATOM     15  O   ASN A   3       3.951  20.900  28.330  0.00  0.00    -0.286 OA
ENDBRANCH  13  14
BRANCH  13  16
ATOM     16  CB  ASN A   3       5.342  19.001  26.190  0.00  0.00    +0.112 C 
BRANCH  16  17
ATOM     17  CG  ASN A   3       6.684  18.783  26.841  0.00  0.00    +0.222 C 
ATOM     18  ND2 ASN A   3       6.691  17.847  27.781  0.00  0.00    -0.329 N 
ATOM     19 HD21 ASN A   3       7.574  17.618  28.280  0.00  0.00    +0.145 HD
ATOM     20 HD22 ASN A   3       5.813  17.343  28.019  0.00  0.00    +0.145 HD
ATOM     21  OD1 ASN A   3       7.680  19.432  26.494  0.00  0.00    -0.275 OA
ENDBRANCH  16  17
ENDBRANCH  13  16
ENDBRANCH  11  13
ENDBRANCH   1   9
BRANCH   1  22
ATOM     22  CB  ARG A   2       5.476  23.456  22.716  0.00  0.00    +0.033 C 
BRANCH  22  23
ATOM     23  CG  ARG A   2       6.044  24.546  21.816  0.00  0.00    +0.045 C 
BRANCH  23  24
ATOM     24  CD  ARG A   2       5.257  24.726  20.507  0.00  0.00    +0.174 C 
BRANCH  24  25
ATOM     25  NE  ARG A   2       5.257  23.488  19.714  0.00  0.00    -0.265 N 
ATOM     26  CZ  ARG A   2       4.302  22.565  19.695  0.00  0.00    +0.342 C 
ATOM     27  NH2 ARG A   2       3.166  22.691  20.403  0.00  0.00    -0.292 N 
ATOM     28 HH21 ARG A   2       3.011  23.534  20.992  0.00  0.00    +0.255 HD
ATOM     29 HH22 ARG A   2       2.442  21.946  20.361  0.00  0.00    +0.255 HD
ATOM     30  NH1 ARG A   2       4.419  21.469  18.961  0.00  0.00    -0.292 N 
ATOM     31 HH11 ARG A   2       3.659  20.759  18.961  0.00  0.00    +0.255 HD
ATOM     32 HH12 ARG A   2       5.271  21.318  18.384  0.00  0.00    +0.255 HD
ATOM     33  HE  ARG A   2       6.086  23.318  19.109  0.00  0.00    +0.259 HD
ENDBRANCH  24  25
ENDBRANCH  23  24
ENDBRANCH  22  23
ENDBRANCH   1  22
TORSDOF 12
REMARK  Name = ../refined-set-2016/3ok9/3ok9_pocket.pdb
REMARK  228 active torsions:
REMARK  status: ('A' for Active; 'I' for Inactive)
REMARK    1  A    between atoms: _1  and  _3
REMARK    2  A    between atoms: _3  and  _4
REMARK    3  A    between atoms: _3  and  _6
REMARK    4  A    between atoms: _6  and  _7
REMARK    5  A    between atoms: _7  and  _8
REMARK    6  A    between atoms: _8  and  _9
REMARK    7  A    between atoms: _18  and  _20
REMARK    8  A    between atoms: _20  and  _21
REMARK    9  A    between atoms: _20  and  _23
REMARK   10  A    between atoms: _23  and  _24
REMARK   11  A    between atoms: _27  and  _29
REMARK   12  A    between atoms: _29  and  _30
REMARK   13  A    between atoms: _29  and  _32
REMARK   14  A    between atoms: _32  and  _33
REMARK   15  A    between atoms: _36  and  _38
REMARK   16  A    between atoms: _38  and  _39
REMARK   17  A    between atoms: _38  and  _41
REMARK   18  A    between atoms: _41  and  _42
REMARK   19  A    between atoms: _45  and  _47
REMARK   20  A    between atoms: _47  and  _48
REMARK   21  A    between atoms: _47  and  _50
REMARK   22  A    between atoms: _50  and  _51
REMARK   23  A    between atoms: _54  and  _56
REMARK   24  A    between atoms: _56  and  _57
REMARK   25  A    between atoms: _59  and  _61
REMARK   26  A    between atoms: _61  and  _62
REMARK   27  A    between atoms: _65  and  _67
REMARK   28  A    between atoms: _67  and  _68
REMARK   29  A    between atoms: _67  and  _70
REMARK   30  A    between atoms: _70  and  _71
REMARK   31  A    between atoms: _74  and  _76
REMARK   32  A    between atoms: _76  and  _77
REMARK   33  A    between atoms: _76  and  _79
REMARK   34  A    between atoms: _79  and  _80
REMARK   35  A    between atoms: _83  and  _85
REMARK   36  A    between atoms: _85  and  _86
REMARK   37  A    between atoms: _85  and  _88
REMARK   38  A    between atoms: _88  and  _89
REMARK   39  A    between atoms: _92  and  _94
REMARK   40  A    between atoms: _94  and  _95
REMARK   41  A    between atoms: _94  and  _97
REMARK   42  A    between atoms: _100  and  _102
REMARK   43  A    between atoms: _102  and  _103
REMARK   44  A    between atoms: _102  and  _105
REMARK   45  A    between atoms: _105  and  _106
REMARK   46  A    between atoms: _106  and  _107
REMARK   47  A    between atoms: _107  and  _108
REMARK   48  A    between atoms: _108  and  _109
REMARK   49  A    between atoms: _113  and  _115
REMARK   50  A    between atoms: _115  and  _116
REMARK   51  A    between atoms: _115  and  _118
REMARK   52  A    between atoms: _118  and  _119
REMARK   53  A    between atoms: _119  and  _120
REMARK   54  A    between atoms: _122  and  _124
REMARK   55  A    between atoms: _124  and  _125
REMARK   56  A    between atoms: _124  and  _127
REMARK   57  A    between atoms: _127  and  _128
REMARK   58  A    between atoms: _131  and  _133
REMARK   59  A    between atoms: _133  and  _134
REMARK   60  A    between atoms: _136  and  _138
REMARK   61  A    between atoms: _138  and  _139
REMARK   62  A    between atoms: _141  and  _143
REMARK   63  A    between atoms: _143  and  _144
REMARK   64  A    between atoms: _143  and  _146
REMARK   65  A    between atoms: _144  and  _145
REMARK   66  A    between atoms: _144  and  _150
REMARK   67  A    between atoms: _146  and  _147
REMARK   68  A    between atoms: _150  and  _152
REMARK   69  A    between atoms: _152  and  _153
REMARK   70  A    between atoms: _155  and  _157
REMARK   71  A    between atoms: _157  and  _158
REMARK   72  A    between atoms: _160  and  _162
REMARK   73  A    between atoms: _162  and  _163
REMARK   74  A    between atoms: _162  and  _165
REMARK   75  A    between atoms: _165  and  _166
REMARK   76  A    between atoms: _172  and  _174
REMARK   77  A    between atoms: _174  and  _175
REMARK   78  A    between atoms: _174  and  _177
REMARK   79  A    between atoms: _177  and  _178
REMARK   80  A    between atoms: _181  and  _183
REMARK   81  A    between atoms: _183  and  _184
REMARK   82  A    between atoms: _183  and  _186
REMARK   83  A    between atoms: _186  and  _187
REMARK   84  A    between atoms: _190  and  _192
REMARK   85  A    between atoms: _192  and  _193
REMARK   86  A    between atoms: _192  and  _195
REMARK   87  A    between atoms: _195  and  _196
REMARK   88  A    between atoms: _200  and  _201
REMARK   89  A    between atoms: _206  and  _208
REMARK   90  A    between atoms: _208  and  _209
REMARK   91  A    between atoms: _208  and  _211
REMARK   92  A    between atoms: _214  and  _216
REMARK   93  A    between atoms: _216  and  _217
REMARK   94  A    between atoms: _216  and  _219
REMARK   95  A    between atoms: _219  and  _220
REMARK   96  A    between atoms: _225  and  _227
REMARK   97  A    between atoms: _227  and  _228
REMARK   98  A    between atoms: _227  and  _230
REMARK   99  A    between atoms: _230  and  _231
REMARK  100  A    between atoms: _234  and  _236
REMARK  101  A    between atoms: _236  and  _237
REMARK  102  A    between atoms: _239  and  _241
REMARK  103  A    between atoms: _241  and  _242
REMARK  104  A    between atoms: _241  and  _244
REMARK  105  A    between atoms: _244  and  _245
REMARK  106  A    between atoms: _245  and  _246
REMARK  107  A    between atoms: _246  and  _247
REMARK  108  A    between atoms: _256  and  _258
REMARK  109  A    between atoms: _258  and  _259
REMARK  110  A    between atoms: _258  and  _261
REMARK  111  A    between atoms: _261  and  _262
REMARK  112  A    between atoms: _267  and  _269
REMARK  113  A    between atoms: _269  and  _270
REMARK  114  A    between atoms: _269  and  _272
REMARK  115  A    between atoms: _272  and  _273
REMARK  116  A    between atoms: _273  and  _274
REMARK  117  A    between atoms: _274  and  _275
REMARK  118  A    between atoms: _284  and  _286
REMARK  119  A    between atoms: _286  and  _287
REMARK  120  A    between atoms: _286  and  _289
REMARK  121  A    between atoms: _289  and  _290
REMARK  122  A    between atoms: _293  and  _295
REMARK  123  A    between atoms: _295  and  _296
REMARK  124  A    between atoms: _295  and  _298
REMARK  125  A    between atoms: _298  and  _299
REMARK  126  A    between atoms: _302  and  _304
REMARK  127  A    between atoms: _304  and  _305
REMARK  128  A    between atoms: _304  and  _307
REMARK  129  A    between atoms: _307  and  _308
REMARK  130  A    between atoms: _311  and  _313
REMARK  131  A    between atoms: _313  and  _314
REMARK  132  A    between atoms: _313  and  _316
REMARK  133  A    between atoms: _316  and  _317
REMARK  134  A    between atoms: _320  and  _322
REMARK  135  A    between atoms: _322  and  _323
REMARK  136  A    between atoms: _325  and  _327
REMARK  137  A    between atoms: _327  and  _328
REMARK  138  A    between atoms: _331  and  _333
REMARK  139  A    between atoms: _333  and  _334
REMARK  140  A    between atoms: _333  and  _336
REMARK  141  A    between atoms: _336  and  _337
REMARK  142  A    between atoms: _340  and  _342
REMARK  143  A    between atoms: _342  and  _343
REMARK  144  A    between atoms: _342  and  _345
REMARK  145  A    between atoms: _345  and  _346
REMARK  146  A    between atoms: _349  and  _351
REMARK  147  A    between atoms: _351  and  _352
REMARK  148  A    between atoms: _351  and  _354
REMARK  149  A    between atoms: _354  and  _355
REMARK  150  A    between atoms: _358  and  _360
REMARK  151  A    between atoms: _360  and  _361
REMARK  152  A    between atoms: _360  and  _363
REMARK  153  A    between atoms: _366  and  _368
REMARK  154  A    between atoms: _368  and  _369
REMARK  155  A    between atoms: _368  and  _371
REMARK  156  A    between atoms: _371  and  _372
REMARK  157  A    between atoms: _372  and  _373
REMARK  158  A    between atoms: _373  and  _374
REMARK  159  A    between atoms: _374  and  _375
REMARK  160  A    between atoms: _379  and  _381
REMARK  161  A    between atoms: _381  and  _382
REMARK  162  A    between atoms: _381  and  _384
REMARK  163  A    between atoms: _384  and  _385
REMARK  164  A    between atoms: _385  and  _386
REMARK  165  A    between atoms: _388  and  _390
REMARK  166  A    between atoms: _390  and  _391
REMARK  167  A    between atoms: _390  and  _393
REMARK  168  A    between atoms: _393  and  _394
REMARK  169  A    between atoms: _397  and  _399
REMARK  170  A    between atoms: _399  and  _400
REMARK  171  A    between atoms: _402  and  _404
REMARK  172  A    between atoms: _404  and  _405
REMARK  173  A    between atoms: _407  and  _409
REMARK  174  A    between atoms: _409  and  _410
REMARK  175  A    between atoms: _409  and  _412
REMARK  176  A    between atoms: _412  and  _413
REMARK  177  A    between atoms: _416  and  _418
REMARK  178  A    between atoms: _418  and  _419
REMARK  179  A    between atoms: _421  and  _423
REMARK  180  A    between atoms: _423  and  _424
REMARK  181  A    between atoms: _426  and  _428
REMARK  182  A    between atoms: _428  and  _429
REMARK  183  A    between atoms: _428  and  _431
REMARK  184  A    between atoms: _431  and  _432
REMARK  185  A    between atoms: _438  and  _440
REMARK  186  A    between atoms: _440  and  _441
REMARK  187  A    between atoms: _440  and  _443
REMARK  188  A    between atoms: _443  and  _444
REMARK  189  A    between atoms: _447  and  _449
REMARK  190  A    between atoms: _449  and  _450
REMARK  191  A    between atoms: _449  and  _452
REMARK  192  A    between atoms: _455  and  _457
REMARK  193  A    between atoms: _457  and  _458
REMARK  194  A    between atoms: _457  and  _460
REMARK  195  A    between atoms: _460  and  _461
REMARK  196  A    between atoms: _465  and  _466
REMARK  197  A    between atoms: _471  and  _473
REMARK  198  A    between atoms: _473  and  _474
REMARK  199  A    between atoms: _473  and  _476
REMARK  200  A    between atoms: _476  and  _477
REMARK  201  A    between atoms: _481  and  _482
REMARK  202  A    between atoms: _487  and  _489
REMARK  203  A    between atoms: _489  and  _490
REMARK  204  A    between atoms: _489  and  _492
REMARK  205  A    between atoms: _495  and  _497
REMARK  206  A    between atoms: _497  and  _498
REMARK  207  A    between atoms: _497  and  _500
REMARK  208  A    between atoms: _500  and  _501
REMARK  209  A    between atoms: _506  and  _508
REMARK  210  A    between atoms: _508  and  _509
REMARK  211  A    between atoms: _508  and  _511
REMARK  212  A    between atoms: _511  and  _512
REMARK  213  A    between atoms: _515  and  _517
REMARK  214  A    between atoms: _517  and  _518
REMARK  215  A    between atoms: _517  and  _520
REMARK  216  A    between atoms: _520  and  _521
REMARK  217  A    between atoms: _524  and  _526
REMARK  218  A    between atoms: _526  and  _527
REMARK  219  A    between atoms: _529  and  _531
REMARK  220  A    between atoms: _531  and  _532
REMARK  221  A    between atoms: _531  and  _534
REMARK  222  A    between atoms: _534  and  _535
REMARK  223  A    between atoms: _535  and  _536
REMARK  224  A    between atoms: _536  and  _537
REMARK  225  A    between atoms: _546  and  _548
REMARK  226  A    between atoms: _548  and  _549
REMARK  227  A    between atoms: _548  and  _551
REMARK  228  A    between atoms: _551  and  _552
REMARK                            x       y       z     vdW  Elec       q    Type
REMARK                         _______ _______ _______ _____ _____    ______ ____
ROOT
ATOM      1  NE  ARG A   1       5.794  20.572  14.949  0.00  0.00    -0.265 N 
ATOM      2  HE  ARG A   1       6.094  20.511  15.943  0.00  0.00    +0.259 HD
ATOM      3  CZ  ARG A   1       5.967  19.520  14.168  0.00  0.00    +0.342 C 
ATOM      4  NH2 ARG A   1       6.514  18.433  14.656  0.00  0.00    -0.292 N 
ATOM      5 HH21 ARG A   1       6.809  18.402  15.653  0.00  0.00    +0.255 HD
ATOM      6 HH22 ARG A   1       6.653  17.602  14.046  0.00  0.00    +0.255 HD
ATOM      7  NH1 ARG A   1       5.578  19.568  12.908  0.00  0.00    -0.292 N 
ATOM      8 HH11 ARG A   1       5.137  20.432  12.533  0.00  0.00    +0.255 HD
ATOM      9 HH12 ARG A   1       5.713  18.742  12.290  0.00  0.00    +0.255 HD
ENDROOT
BRANCH   1  10
ATOM     10  CD  ARG A   1       5.194  21.824  14.468  0.00  0.00    +0.174 C 
BRANCH  10  11
ATOM     11  CG  ARG A   1       4.875  22.682  15.684  0.00  0.00    +0.045 C 
BRANCH  11  12
ATOM     12  CB  ARG A   1       4.363  24.074  15.269  0.00  0.00    +0.029 C 
BRANCH  12  13
ATOM     13  CA  ARG A   1       3.779  24.836  16.481  0.00  0.00    +0.133 C 
BRANCH  13  14
ATOM     14  N   ARG A   1       2.553  24.169  16.969  0.00  0.00    -0.239 NA
ATOM     15  H   ARG A   1       2.207  23.298  16.519  0.00  0.00    +0.142 HD
ENDBRANCH  13  14
BRANCH  13  16
ATOM     16  C   ARG A   1       3.519  26.258  16.036  0.00  0.00    +0.224 C 
ATOM     17  O   ARG A   1       2.544  26.499  15.299  0.00  0.00    -0.287 OA
ENDBRANCH  13  16
ENDBRANCH  12  13
ENDBRANCH  11  12
ENDBRANCH  10  11
ENDBRANCH   1  10
TORSDOF 6
REMARK  Name = ../refined-set-2016/3ok9/3ok9_pocket.pdb
REMARK  228 active torsions:
REMARK  status: ('A' for Active; 'I' for Inactive)
REMARK    1  A    between atoms: _1  and  _3
REMARK    2  A    between atoms: _3  and  _4
REMARK    3  A    between atoms: _3  and  _6
REMARK    4  A    between atoms: _6  and  _7
REMARK    5  A    between atoms: _7  and  _8
REMARK    6  A    between atoms: _8  and  _9
REMARK    7  A    between atoms: _18  and  _20
REMARK    8  A    between atoms: _20  and  _21
REMARK    9  A    between atoms: _20  and  _23
REMARK   10  A    between atoms: _23  and  _24
REMARK   11  A    between atoms: _27  and  _29
REMARK   12  A    between atoms: _29  and  _30
REMARK   13  A    between atoms: _29  and  _32
REMARK   14  A    between atoms: _32  and  _33
REMARK   15  A    between atoms: _36  and  _38
REMARK   16  A    between atoms: _38  and  _39
REMARK   17  A    between atoms: _38  and  _41
REMARK   18  A    between atoms: _41  and  _42
REMARK   19  A    between atoms: _45  and  _47
REMARK   20  A    between atoms: _47  and  _48
REMARK   21  A    between atoms: _47  and  _50
REMARK   22  A    between atoms: _50  and  _51
REMARK   23  A    between atoms: _54  and  _56
REMARK   24  A    between atoms: _56  and  _57
REMARK   25  A    between atoms: _59  and  _61
REMARK   26  A    between atoms: _61  and  _62
REMARK   27  A    between atoms: _65  and  _67
REMARK   28  A    between atoms: _67  and  _68
REMARK   29  A    between atoms: _67  and  _70
REMARK   30  A    between atoms: _70  and  _71
REMARK   31  A    between atoms: _74  and  _76
REMARK   32  A    between atoms: _76  and  _77
REMARK   33  A    between atoms: _76  and  _79
REMARK   34  A    between atoms: _79  and  _80
REMARK   35  A    between atoms: _83  and  _85
REMARK   36  A    between atoms: _85  and  _86
REMARK   37  A    between atoms: _85  and  _88
REMARK   38  A    between atoms: _88  and  _89
REMARK   39  A    between atoms: _92  and  _94
REMARK   40  A    between atoms: _94  and  _95
REMARK   41  A    between atoms: _94  and  _97
REMARK   42  A    between atoms: _100  and  _102
REMARK   43  A    between atoms: _102  and  _103
REMARK   44  A    between atoms: _102  and  _105
REMARK   45  A    between atoms: _105  and  _106
REMARK   46  A    between atoms: _106  and  _107
REMARK   47  A    between atoms: _107  and  _108
REMARK   48  A    between atoms: _108  and  _109
REMARK   49  A    between atoms: _113  and  _115
REMARK   50  A    between atoms: _115  and  _116
REMARK   51  A    between atoms: _115  and  _118
REMARK   52  A    between atoms: _118  and  _119
REMARK   53  A    between atoms: _119  and  _120
REMARK   54  A    between atoms: _122  and  _124
REMARK   55  A    between atoms: _124  and  _125
REMARK   56  A    between atoms: _124  and  _127
REMARK   57  A    between atoms: _127  and  _128
REMARK   58  A    between atoms: _131  and  _133
REMARK   59  A    between atoms: _133  and  _134
REMARK   60  A    between atoms: _136  and  _138
REMARK   61  A    between atoms: _138  and  _139
REMARK   62  A    between atoms: _141  and  _143
REMARK   63  A    between atoms: _143  and  _144
REMARK   64  A    between atoms: _143  and  _146
REMARK   65  A    between atoms: _144  and  _145
REMARK   66  A    between atoms: _144  and  _150
REMARK   67  A    between atoms: _146  and  _147
REMARK   68  A    between atoms: _150  and  _152
REMARK   69  A    between atoms: _152  and  _153
REMARK   70  A    between atoms: _155  and  _157
REMARK   71  A    between atoms: _157  and  _158
REMARK   72  A    between atoms: _160  and  _162
REMARK   73  A    between atoms: _162  and  _163
REMARK   74  A    between atoms: _162  and  _165
REMARK   75  A    between atoms: _165  and  _166
REMARK   76  A    between atoms: _172  and  _174
REMARK   77  A    between atoms: _174  and  _175
REMARK   78  A    between atoms: _174  and  _177
REMARK   79  A    between atoms: _177  and  _178
REMARK   80  A    between atoms: _181  and  _183
REMARK   81  A    between atoms: _183  and  _184
REMARK   82  A    between atoms: _183  and  _186
REMARK   83  A    between atoms: _186  and  _187
REMARK   84  A    between atoms: _190  and  _192
REMARK   85  A    between atoms: _192  and  _193
REMARK   86  A    between atoms: _192  and  _195
REMARK   87  A    between atoms: _195  and  _196
REMARK   88  A    between atoms: _200  and  _201
REMARK   89  A    between atoms: _206  and  _208
REMARK   90  A    between atoms: _208  and  _209
REMARK   91  A    between atoms: _208  and  _211
REMARK   92  A    between atoms: _214  and  _216
REMARK   93  A    between atoms: _216  and  _217
REMARK   94  A    between atoms: _216  and  _219
REMARK   95  A    between atoms: _219  and  _220
REMARK   96  A    between atoms: _225  and  _227
REMARK   97  A    between atoms: _227  and  _228
REMARK   98  A    between atoms: _227  and  _230
REMARK   99  A    between atoms: _230  and  _231
REMARK  100  A    between atoms: _234  and  _236
REMARK  101  A    between atoms: _236  and  _237
REMARK  102  A    between atoms: _239  and  _241
REMARK  103  A    between atoms: _241  and  _242
REMARK  104  A    between atoms: _241  and  _244
REMARK  105  A    between atoms: _244  and  _245
REMARK  106  A    between atoms: _245  and  _246
REMARK  107  A    between atoms: _246  and  _247
REMARK  108  A    between atoms: _256  and  _258
REMARK  109  A    between atoms: _258  and  _259
REMARK  110  A    between atoms: _258  and  _261
REMARK  111  A    between atoms: _261  and  _262
REMARK  112  A    between atoms: _267  and  _269
REMARK  113  A    between atoms: _269  and  _270
REMARK  114  A    between atoms: _269  and  _272
REMARK  115  A    between atoms: _272  and  _273
REMARK  116  A    between atoms: _273  and  _274
REMARK  117  A    between atoms: _274  and  _275
REMARK  118  A    between atoms: _284  and  _286
REMARK  119  A    between atoms: _286  and  _287
REMARK  120  A    between atoms: _286  and  _289
REMARK  121  A    between atoms: _289  and  _290
REMARK  122  A    between atoms: _293  and  _295
REMARK  123  A    between atoms: _295  and  _296
REMARK  124  A    between atoms: _295  and  _298
REMARK  125  A    between atoms: _298  and  _299
REMARK  126  A    between atoms: _302  and  _304
REMARK  127  A    between atoms: _304  and  _305
REMARK  128  A    between atoms: _304  and  _307
REMARK  129  A    between atoms: _307  and  _308
REMARK  130  A    between atoms: _311  and  _313
REMARK  131  A    between atoms: _313  and  _314
REMARK  132  A    between atoms: _313  and  _316
REMARK  133  A    between atoms: _316  and  _317
REMARK  134  A    between atoms: _320  and  _322
REMARK  135  A    between atoms: _322  and  _323
REMARK  136  A    between atoms: _325  and  _327
REMARK  137  A    between atoms: _327  and  _328
REMARK  138  A    between atoms: _331  and  _333
REMARK  139  A    between atoms: _333  and  _334
REMARK  140  A    between atoms: _333  and  _336
REMARK  141  A    between atoms: _336  and  _337
REMARK  142  A    between atoms: _340  and  _342
REMARK  143  A    between atoms: _342  and  _343
REMARK  144  A    between atoms: _342  and  _345
REMARK  145  A    between atoms: _345  and  _346
REMARK  146  A    between atoms: _349  and  _351
REMARK  147  A    between atoms: _351  and  _352
REMARK  148  A    between atoms: _351  and  _354
REMARK  149  A    between atoms: _354  and  _355
REMARK  150  A    between atoms: _358  and  _360
REMARK  151  A    between atoms: _360  and  _361
REMARK  152  A    between atoms: _360  and  _363
REMARK  153  A    between atoms: _366  and  _368
REMARK  154  A    between atoms: _368  and  _369
REMARK  155  A    between atoms: _368  and  _371
REMARK  156  A    between atoms: _371  and  _372
REMARK  157  A    between atoms: _372  and  _373
REMARK  158  A    between atoms: _373  and  _374
REMARK  159  A    between atoms: _374  and  _375
REMARK  160  A    between atoms: _379  and  _381
REMARK  161  A    between atoms: _381  and  _382
REMARK  162  A    between atoms: _381  and  _384
REMARK  163  A    between atoms: _384  and  _385
REMARK  164  A    between atoms: _385  and  _386
REMARK  165  A    between atoms: _388  and  _390
REMARK  166  A    between atoms: _390  and  _391
REMARK  167  A    between atoms: _390  and  _393
REMARK  168  A    between atoms: _393  and  _394
REMARK  169  A    between atoms: _397  and  _399
REMARK  170  A    between atoms: _399  and  _400
REMARK  171  A    between atoms: _402  and  _404
REMARK  172  A    between atoms: _404  and  _405
REMARK  173  A    between atoms: _407  and  _409
REMARK  174  A    between atoms: _409  and  _410
REMARK  175  A    between atoms: _409  and  _412
REMARK  176  A    between atoms: _412  and  _413
REMARK  177  A    between atoms: _416  and  _418
REMARK  178  A    between atoms: _418  and  _419
REMARK  179  A    between atoms: _421  and  _423
REMARK  180  A    between atoms: _423  and  _424
REMARK  181  A    between atoms: _426  and  _428
REMARK  182  A    between atoms: _428  and  _429
REMARK  183  A    between atoms: _428  and  _431
REMARK  184  A    between atoms: _431  and  _432
REMARK  185  A    between atoms: _438  and  _440
REMARK  186  A    between atoms: _440  and  _441
REMARK  187  A    between atoms: _440  and  _443
REMARK  188  A    between atoms: _443  and  _444
REMARK  189  A    between atoms: _447  and  _449
REMARK  190  A    between atoms: _449  and  _450
REMARK  191  A    between atoms: _449  and  _452
REMARK  192  A    between atoms: _455  and  _457
REMARK  193  A    between atoms: _457  and  _458
REMARK  194  A    between atoms: _457  and  _460
REMARK  195  A    between atoms: _460  and  _461
REMARK  196  A    between atoms: _465  and  _466
REMARK  197  A    between atoms: _471  and  _473
REMARK  198  A    between atoms: _473  and  _474
REMARK  199  A    between atoms: _473  and  _476
REMARK  200  A    between atoms: _476  and  _477
REMARK  201  A    between atoms: _481  and  _482
REMARK  202  A    between atoms: _487  and  _489
REMARK  203  A    between atoms: _489  and  _490
REMARK  204  A    between atoms: _489  and  _492
REMARK  205  A    between atoms: _495  and  _497
REMARK  206  A    between atoms: _497  and  _498
REMARK  207  A    between atoms: _497  and  _500
REMARK  208  A    between atoms: _500  and  _501
REMARK  209  A    between atoms: _506  and  _508
REMARK  210  A    between atoms: _508  and  _509
REMARK  211  A    between atoms: _508  and  _511
REMARK  212  A    between atoms: _511  and  _512
REMARK  213  A    between atoms: _515  and  _517
REMARK  214  A    between atoms: _517  and  _518
REMARK  215  A    between atoms: _517  and  _520
REMARK  216  A    between atoms: _520  and  _521
REMARK  217  A    between atoms: _524  and  _526
REMARK  218  A    between atoms: _526  and  _527
REMARK  219  A    between atoms: _529  and  _531
REMARK  220  A    between atoms: _531  and  _532
REMARK  221  A    between atoms: _531  and  _534
REMARK  222  A    between atoms: _534  and  _535
REMARK  223  A    between atoms: _535  and  _536
REMARK  224  A    between atoms: _536  and  _537
REMARK  225  A    between atoms: _546  and  _548
REMARK  226  A    between atoms: _548  and  _549
REMARK  227  A    between atoms: _548  and  _551
REMARK  228  A    between atoms: _551  and  _552
REMARK                            x       y       z     vdW  Elec       q    Type
REMARK                         _______ _______ _______ _____ _____    ______ ____
ROOT
ATOM      1  C   GLY A   5      16.829  28.290  19.626  0.00  0.00    +0.243 C 
ATOM      2  O   GLY A   5      17.900  27.649  19.798  0.00  0.00    -0.273 OA
ATOM      3  N   ALA A   6      16.608  29.025  18.540  0.00  0.00    -0.297 N 
ATOM      4  H   ALA A   6      15.715  29.555  18.482  0.00  0.00    +0.150 HD
ENDROOT
BRANCH   3   5
ATOM      5  CA  ALA A   6      17.547  29.134  17.419  0.00  0.00    +0.149 C 
ATOM      6  CB  ALA A   6      16.802  29.012  16.099  0.00  0.00    +0.031 C 
BRANCH   5   7
ATOM      7  C   ALA A   6      18.222  30.474  17.488  0.00  0.00    +0.241 C 
ATOM      8  N   ASP A   7      19.558  30.496  17.530  0.00  0.00    -0.297 N 
ATOM      9  H   ASP A   7      20.101  29.612  17.606  0.00  0.00    +0.150 HD
ATOM     10  O   ALA A   6      17.562  31.524  17.462  0.00  0.00    -0.273 OA
BRANCH   8  11
ATOM     11  CA  ASP A   7      20.234  31.778  17.468  0.00  0.00    +0.160 C 
BRANCH  11  12
ATOM     12  C   ASP A   7      20.036  32.459  16.127  0.00  0.00    +0.241 C 
ATOM     13  O   ASP A   7      19.927  33.688  16.048  0.00  0.00    -0.273 OA
ATOM     14  N   ASP A   8      20.030  31.652  15.076  0.00  0.00    -0.297 N 
ATOM     15  H   ASP A   8      20.004  30.625  15.240  0.00  0.00    +0.150 HD
BRANCH  14  16
ATOM     16  CA  ASP A   8      20.058  32.131  13.715  0.00  0.00    +0.160 C 
BRANCH  16  17
ATOM     17  C   ASP A   8      18.840  31.598  12.956  0.00  0.00    +0.241 C 
ATOM     18  O   ASP A   8      18.211  30.617  13.314  0.00  0.00    -0.273 OA
ATOM     19  N   THR A   9      18.534  32.295  11.883  0.00  0.00    -0.295 N 
ATOM     20  H   THR A   9      19.083  33.160  11.705  0.00  0.00    +0.150 HD
BRANCH  19  21
ATOM     21  CA  THR A   9      17.487  31.956  10.920  0.00  0.00    +0.176 C 
BRANCH  21  22
ATOM     22  C   THR A   9      18.040  31.018   9.863  0.00  0.00    +0.243 C 
ATOM     23  N   VAL A  10      17.385  29.895   9.637  0.00  0.00    -0.298 N 
ATOM     24  H   VAL A  10      16.475  29.759  10.122  0.00  0.00    +0.150 HD
ATOM     25  O   THR A   9      19.092  31.299   9.284  0.00  0.00    -0.273 OA
BRANCH  23  26
ATOM     26  CA  VAL A  10      17.848  28.832   8.755  0.00  0.00    +0.137 C 
BRANCH  26  27
ATOM     27  CB  VAL A  10      18.323  27.583   9.517  0.00  0.00    +0.026 C 
ATOM     28  CG2 VAL A  10      19.176  27.944  10.738  0.00  0.00    +0.002 C 
ATOM     29  CG1 VAL A  10      19.076  26.659   8.544  0.00  0.00    +0.002 C 
ENDBRANCH  26  27
BRANCH  26  30
ATOM     30  C   VAL A  10      16.690  28.454   7.847  0.00  0.00    +0.227 C 
ATOM     31  O   VAL A  10      15.613  28.082   8.331  0.00  0.00    -0.286 OA
ENDBRANCH  26  30
ENDBRANCH  23  26
ENDBRANCH  21  22
BRANCH  21  32
ATOM     32  CB  THR A   9      16.968  33.254  10.324  0.00  0.00    +0.137 C 
ATOM     33  CG2 THR A   9      15.924  32.999   9.255  0.00  0.00    +0.034 C 
BRANCH  32  34
ATOM     34  OG1 THR A   9      16.333  34.013  11.370  0.00  0.00    -0.382 OA
ATOM     35  HG1 THR A   9      16.993  34.207  12.082  0.00  0.00    +0.210 HD
ENDBRANCH  32  34
ENDBRANCH  21  32
ENDBRANCH  19  21
ENDBRANCH  16  17
BRANCH  16  36
ATOM     36  CB  ASP A   8      21.332  31.668  13.026  0.00  0.00    +0.143 C 
BRANCH  36  37
ATOM     37  CG  ASP A   8      22.633  32.268  13.524  0.00  0.00    +0.367 C 
ATOM     38  OD2 ASP A   8      22.575  33.206  14.348  0.00  0.00    -0.246 OA
ATOM     39  OD1 ASP A   8      23.738  31.839  13.105  0.00  0.00    -0.246 OA
ENDBRANCH  36  37
ENDBRANCH  16  36
ENDBRANCH  14  16
ENDBRANCH  11  12
BRANCH  11  40
ATOM     40  CB  ASP A   7      21.734  31.582  17.707  0.00  0.00    +0.143 C 
BRANCH  40  41
ATOM     41  CG  ASP A   7      22.226  30.982  18.980  0.00  0.00    +0.367 C 
ATOM     42  OD2 ASP A   7      21.486  31.022  19.973  0.00  0.00    -0.246 OA
ATOM     43  OD1 ASP A   7      23.406  30.481  18.964  0.00  0.00    -0.246 OA
ENDBRANCH  40  41
ENDBRANCH  11  40
ENDBRANCH   8  11
ENDBRANCH   5   7
ENDBRANCH   3   5
BRANCH   1  44
ATOM     44  CA  GLY A   5      15.801  28.214  20.722  0.00  0.00    +0.176 C 
BRANCH  44  47
ATOM     45  C   THR A   4      14.575  30.337  20.733  0.00  0.00    +0.243 C 
ATOM     46  O   THR A   4      15.512  30.929  21.297  0.00  0.00    -0.273 OA
ATOM     47  N   GLY A   5      14.649  29.051  20.437  0.00  0.00    -0.295 N 
ATOM     48  H   GLY A   5      13.830  28.611  19.970  0.00  0.00    +0.150 HD
BRANCH  45  49
ATOM     49  CA  THR A   4      13.325  31.113  20.342  0.00  0.00    +0.176 C 
BRANCH  49  51
ATOM     50  C   ASP A   3      12.960  30.278  18.129  0.00  0.00    +0.241 C 
ATOM     51  N   THR A   4      12.525  30.438  19.379  0.00  0.00    -0.295 N 
ATOM     52  H   THR A   4      11.593  30.066  19.652  0.00  0.00    +0.150 HD
ATOM     53  O   ASP A   3      14.067  30.650  17.759  0.00  0.00    -0.273 OA
BRANCH  50  54
ATOM     54  CA  ASP A   3      11.990  29.554  17.184  0.00  0.00    +0.160 C 
BRANCH  54  57
ATOM     55  C   LEU A   2       9.894  30.404  16.307  0.00  0.00    +0.241 C 
ATOM     56  O   LEU A   2       9.236  29.721  17.127  0.00  0.00    -0.273 OA
ATOM     57  N   ASP A   3      11.190  30.466  16.348  0.00  0.00    -0.297 N 
ATOM     58  H   ASP A   3      11.679  31.182  15.773  0.00  0.00    +0.150 HD
BRANCH  55  59
ATOM     59  CA  LEU A   2       9.157  31.104  15.188  0.00  0.00    +0.149 C 
BRANCH  59  61
ATOM     60  C   LEU A   1       9.253  29.448  13.400  0.00  0.00    +0.238 C 
ATOM     61  N   LEU A   2       8.572  30.095  14.328  0.00  0.00    -0.297 N 
ATOM     62  H   LEU A   2       7.564  29.869  14.448  0.00  0.00    +0.150 HD
ATOM     63  O   LEU A   1      10.393  29.795  13.081  0.00  0.00    -0.274 OA
BRANCH  60  64
ATOM     64  CA  LEU A   1       8.606  28.279  12.709  0.00  0.00    +0.145 C 
BRANCH  64  65
ATOM     65  N   LEU A   1       8.834  28.389  11.268  0.00  0.00    -0.238 NA
ATOM     66  H   LEU A   1       9.693  27.964  10.864  0.00  0.00    +0.142 HD
ENDBRANCH  64  65
BRANCH  64  67
ATOM     67  CB  LEU A   1       9.192  26.901  13.011  0.00  0.00    +0.026 C 
BRANCH  67  68
ATOM     68  CG  LEU A   1       9.145  26.329  14.398  0.00  0.00    +0.002 C 
ATOM     69  CD2 LEU A   1       7.735  25.894  14.744  0.00  0.00    +0.000 C 
ATOM     70  CD1 LEU A   1      10.143  25.173  14.473  0.00  0.00    +0.000 C 
ENDBRANCH  67  68
ENDBRANCH  64  67
ENDBRANCH  60  64
ENDBRANCH  59  61
BRANCH  59  71
ATOM     71  CB  LEU A   2       8.080  32.030  15.789  0.00  0.00    +0.029 C 
BRANCH  71  72
ATOM     72  CG  LEU A   2       7.259  32.798  14.756  0.00  0.00    +0.002 C 
ATOM     73  CD2 LEU A   2       6.222  33.652  15.477  0.00  0.00    +0.000 C 
ATOM     74  CD1 LEU A   2       8.184  33.586  13.836  0.00  0.00    +0.000 C 
ENDBRANCH  71  72
ENDBRANCH  59  71
ENDBRANCH  55  59
ENDBRANCH  54  57
BRANCH  54  75
ATOM     75  CB  ASP A   3      12.764  28.658  16.246  0.00  0.00    +0.143 C 
BRANCH  75  76
ATOM     76  CG  ASP A   3      13.459  27.530  16.944  0.00  0.00    +0.367 C 
ATOM     77  OD2 ASP A   3      13.439  27.534  18.213  0.00  0.00    -0.246 OA
ATOM     78  OD1 ASP A   3      14.008  26.646  16.278  0.00  0.00    -0.246 OA
ENDBRANCH  75  76
ENDBRANCH  54  75
ENDBRANCH  50  54
ENDBRANCH  49  51
BRANCH  49  79
ATOM     79  CB  THR A   4      12.508  31.395  21.621  0.00  0.00    +0.137 C 
ATOM     80  CG2 THR A   4      11.340  32.294  21.307  0.00  0.00    +0.034 C 
BRANCH  79  81
ATOM     81  OG1 THR A   4      12.029  30.171  22.191  0.00  0.00    -0.382 OA
ATOM     82  HG1 THR A   4      12.798  29.592  22.421  0.00  0.00    +0.210 HD
ENDBRANCH  79  81
ENDBRANCH  49  79
ENDBRANCH  45  49
ENDBRANCH  44  47
ENDBRANCH   1  44
TORSDOF 35
REMARK  Name = ../refined-set-2016/3ok9/3ok9_pocket.pdb
REMARK  228 active torsions:
REMARK  status: ('A' for Active; 'I' for Inactive)
REMARK    1  A    between atoms: _1  and  _3
REMARK    2  A    between atoms: _3  and  _4
REMARK    3  A    between atoms: _3  and  _6
REMARK    4  A    between atoms: _6  and  _7
REMARK    5  A    between atoms: _7  and  _8
REMARK    6  A    between atoms: _8  and  _9
REMARK    7  A    between atoms: _18  and  _20
REMARK    8  A    between atoms: _20  and  _21
REMARK    9  A    between atoms: _20  and  _23
REMARK   10  A    between atoms: _23  and  _24
REMARK   11  A    between atoms: _27  and  _29
REMARK   12  A    between atoms: _29  and  _30
REMARK   13  A    between atoms: _29  and  _32
REMARK   14  A    between atoms: _32  and  _33
REMARK   15  A    between atoms: _36  and  _38
REMARK   16  A    between atoms: _38  and  _39
REMARK   17  A    between atoms: _38  and  _41
REMARK   18  A    between atoms: _41  and  _42
REMARK   19  A    between atoms: _45  and  _47
REMARK   20  A    between atoms: _47  and  _48
REMARK   21  A    between atoms: _47  and  _50
REMARK   22  A    between atoms: _50  and  _51
REMARK   23  A    between atoms: _54  and  _56
REMARK   24  A    between atoms: _56  and  _57
REMARK   25  A    between atoms: _59  and  _61
REMARK   26  A    between atoms: _61  and  _62
REMARK   27  A    between atoms: _65  and  _67
REMARK   28  A    between atoms: _67  and  _68
REMARK   29  A    between atoms: _67  and  _70
REMARK   30  A    between atoms: _70  and  _71
REMARK   31  A    between atoms: _74  and  _76
REMARK   32  A    between atoms: _76  and  _77
REMARK   33  A    between atoms: _76  and  _79
REMARK   34  A    between atoms: _79  and  _80
REMARK   35  A    between atoms: _83  and  _85
REMARK   36  A    between atoms: _85  and  _86
REMARK   37  A    between atoms: _85  and  _88
REMARK   38  A    between atoms: _88  and  _89
REMARK   39  A    between atoms: _92  and  _94
REMARK   40  A    between atoms: _94  and  _95
REMARK   41  A    between atoms: _94  and  _97
REMARK   42  A    between atoms: _100  and  _102
REMARK   43  A    between atoms: _102  and  _103
REMARK   44  A    between atoms: _102  and  _105
REMARK   45  A    between atoms: _105  and  _106
REMARK   46  A    between atoms: _106  and  _107
REMARK   47  A    between atoms: _107  and  _108
REMARK   48  A    between atoms: _108  and  _109
REMARK   49  A    between atoms: _113  and  _115
REMARK   50  A    between atoms: _115  and  _116
REMARK   51  A    between atoms: _115  and  _118
REMARK   52  A    between atoms: _118  and  _119
REMARK   53  A    between atoms: _119  and  _120
REMARK   54  A    between atoms: _122  and  _124
REMARK   55  A    between atoms: _124  and  _125
REMARK   56  A    between atoms: _124  and  _127
REMARK   57  A    between atoms: _127  and  _128
REMARK   58  A    between atoms: _131  and  _133
REMARK   59  A    between atoms: _133  and  _134
REMARK   60  A    between atoms: _136  and  _138
REMARK   61  A    between atoms: _138  and  _139
REMARK   62  A    between atoms: _141  and  _143
REMARK   63  A    between atoms: _143  and  _144
REMARK   64  A    between atoms: _143  and  _146
REMARK   65  A    between atoms: _144  and  _145
REMARK   66  A    between atoms: _144  and  _150
REMARK   67  A    between atoms: _146  and  _147
REMARK   68  A    between atoms: _150  and  _152
REMARK   69  A    between atoms: _152  and  _153
REMARK   70  A    between atoms: _155  and  _157
REMARK   71  A    between atoms: _157  and  _158
REMARK   72  A    between atoms: _160  and  _162
REMARK   73  A    between atoms: _162  and  _163
REMARK   74  A    between atoms: _162  and  _165
REMARK   75  A    between atoms: _165  and  _166
REMARK   76  A    between atoms: _172  and  _174
REMARK   77  A    between atoms: _174  and  _175
REMARK   78  A    between atoms: _174  and  _177
REMARK   79  A    between atoms: _177  and  _178
REMARK   80  A    between atoms: _181  and  _183
REMARK   81  A    between atoms: _183  and  _184
REMARK   82  A    between atoms: _183  and  _186
REMARK   83  A    between atoms: _186  and  _187
REMARK   84  A    between atoms: _190  and  _192
REMARK   85  A    between atoms: _192  and  _193
REMARK   86  A    between atoms: _192  and  _195
REMARK   87  A    between atoms: _195  and  _196
REMARK   88  A    between atoms: _200  and  _201
REMARK   89  A    between atoms: _206  and  _208
REMARK   90  A    between atoms: _208  and  _209
REMARK   91  A    between atoms: _208  and  _211
REMARK   92  A    between atoms: _214  and  _216
REMARK   93  A    between atoms: _216  and  _217
REMARK   94  A    between atoms: _216  and  _219
REMARK   95  A    between atoms: _219  and  _220
REMARK   96  A    between atoms: _225  and  _227
REMARK   97  A    between atoms: _227  and  _228
REMARK   98  A    between atoms: _227  and  _230
REMARK   99  A    between atoms: _230  and  _231
REMARK  100  A    between atoms: _234  and  _236
REMARK  101  A    between atoms: _236  and  _237
REMARK  102  A    between atoms: _239  and  _241
REMARK  103  A    between atoms: _241  and  _242
REMARK  104  A    between atoms: _241  and  _244
REMARK  105  A    between atoms: _244  and  _245
REMARK  106  A    between atoms: _245  and  _246
REMARK  107  A    between atoms: _246  and  _247
REMARK  108  A    between atoms: _256  and  _258
REMARK  109  A    between atoms: _258  and  _259
REMARK  110  A    between atoms: _258  and  _261
REMARK  111  A    between atoms: _261  and  _262
REMARK  112  A    between atoms: _267  and  _269
REMARK  113  A    between atoms: _269  and  _270
REMARK  114  A    between atoms: _269  and  _272
REMARK  115  A    between atoms: _272  and  _273
REMARK  116  A    between atoms: _273  and  _274
REMARK  117  A    between atoms: _274  and  _275
REMARK  118  A    between atoms: _284  and  _286
REMARK  119  A    between atoms: _286  and  _287
REMARK  120  A    between atoms: _286  and  _289
REMARK  121  A    between atoms: _289  and  _290
REMARK  122  A    between atoms: _293  and  _295
REMARK  123  A    between atoms: _295  and  _296
REMARK  124  A    between atoms: _295  and  _298
REMARK  125  A    between atoms: _298  and  _299
REMARK  126  A    between atoms: _302  and  _304
REMARK  127  A    between atoms: _304  and  _305
REMARK  128  A    between atoms: _304  and  _307
REMARK  129  A    between atoms: _307  and  _308
REMARK  130  A    between atoms: _311  and  _313
REMARK  131  A    between atoms: _313  and  _314
REMARK  132  A    between atoms: _313  and  _316
REMARK  133  A    between atoms: _316  and  _317
REMARK  134  A    between atoms: _320  and  _322
REMARK  135  A    between atoms: _322  and  _323
REMARK  136  A    between atoms: _325  and  _327
REMARK  137  A    between atoms: _327  and  _328
REMARK  138  A    between atoms: _331  and  _333
REMARK  139  A    between atoms: _333  and  _334
REMARK  140  A    between atoms: _333  and  _336
REMARK  141  A    between atoms: _336  and  _337
REMARK  142  A    between atoms: _340  and  _342
REMARK  143  A    between atoms: _342  and  _343
REMARK  144  A    between atoms: _342  and  _345
REMARK  145  A    between atoms: _345  and  _346
REMARK  146  A    between atoms: _349  and  _351
REMARK  147  A    between atoms: _351  and  _352
REMARK  148  A    between atoms: _351  and  _354
REMARK  149  A    between atoms: _354  and  _355
REMARK  150  A    between atoms: _358  and  _360
REMARK  151  A    between atoms: _360  and  _361
REMARK  152  A    between atoms: _360  and  _363
REMARK  153  A    between atoms: _366  and  _368
REMARK  154  A    between atoms: _368  and  _369
REMARK  155  A    between atoms: _368  and  _371
REMARK  156  A    between atoms: _371  and  _372
REMARK  157  A    between atoms: _372  and  _373
REMARK  158  A    between atoms: _373  and  _374
REMARK  159  A    between atoms: _374  and  _375
REMARK  160  A    between atoms: _379  and  _381
REMARK  161  A    between atoms: _381  and  _382
REMARK  162  A    between atoms: _381  and  _384
REMARK  163  A    between atoms: _384  and  _385
REMARK  164  A    between atoms: _385  and  _386
REMARK  165  A    between atoms: _388  and  _390
REMARK  166  A    between atoms: _390  and  _391
REMARK  167  A    between atoms: _390  and  _393
REMARK  168  A    between atoms: _393  and  _394
REMARK  169  A    between atoms: _397  and  _399
REMARK  170  A    between atoms: _399  and  _400
REMARK  171  A    between atoms: _402  and  _404
REMARK  172  A    between atoms: _404  and  _405
REMARK  173  A    between atoms: _407  and  _409
REMARK  174  A    between atoms: _409  and  _410
REMARK  175  A    between atoms: _409  and  _412
REMARK  176  A    between atoms: _412  and  _413
REMARK  177  A    between atoms: _416  and  _418
REMARK  178  A    between atoms: _418  and  _419
REMARK  179  A    between atoms: _421  and  _423
REMARK  180  A    between atoms: _423  and  _424
REMARK  181  A    between atoms: _426  and  _428
REMARK  182  A    between atoms: _428  and  _429
REMARK  183  A    between atoms: _428  and  _431
REMARK  184  A    between atoms: _431  and  _432
REMARK  185  A    between atoms: _438  and  _440
REMARK  186  A    between atoms: _440  and  _441
REMARK  187  A    between atoms: _440  and  _443
REMARK  188  A    between atoms: _443  and  _444
REMARK  189  A    between atoms: _447  and  _449
REMARK  190  A    between atoms: _449  and  _450
REMARK  191  A    between atoms: _449  and  _452
REMARK  192  A    between atoms: _455  and  _457
REMARK  193  A    between atoms: _457  and  _458
REMARK  194  A    between atoms: _457  and  _460
REMARK  195  A    between atoms: _460  and  _461
REMARK  196  A    between atoms: _465  and  _466
REMARK  197  A    between atoms: _471  and  _473
REMARK  198  A    between atoms: _473  and  _474
REMARK  199  A    between atoms: _473  and  _476
REMARK  200  A    between atoms: _476  and  _477
REMARK  201  A    between atoms: _481  and  _482
REMARK  202  A    between atoms: _487  and  _489
REMARK  203  A    between atoms: _489  and  _490
REMARK  204  A    between atoms: _489  and  _492
REMARK  205  A    between atoms: _495  and  _497
REMARK  206  A    between atoms: _497  and  _498
REMARK  207  A    between atoms: _497  and  _500
REMARK  208  A    between atoms: _500  and  _501
REMARK  209  A    between atoms: _506  and  _508
REMARK  210  A    between atoms: _508  and  _509
REMARK  211  A    between atoms: _508  and  _511
REMARK  212  A    between atoms: _511  and  _512
REMARK  213  A    between atoms: _515  and  _517
REMARK  214  A    between atoms: _517  and  _518
REMARK  215  A    between atoms: _517  and  _520
REMARK  216  A    between atoms: _520  and  _521
REMARK  217  A    between atoms: _524  and  _526
REMARK  218  A    between atoms: _526  and  _527
REMARK  219  A    between atoms: _529  and  _531
REMARK  220  A    between atoms: _531  and  _532
REMARK  221  A    between atoms: _531  and  _534
REMARK  222  A    between atoms: _534  and  _535
REMARK  223  A    between atoms: _535  and  _536
REMARK  224  A    between atoms: _536  and  _537
REMARK  225  A    between atoms: _546  and  _548
REMARK  226  A    between atoms: _548  and  _549
REMARK  227  A    between atoms: _548  and  _551
REMARK  228  A    between atoms: _551  and  _552
REMARK                            x       y       z     vdW  Elec       q    Type
REMARK                         _______ _______ _______ _____ _____    ______ ____
ROOT
ATOM      1  C   GLY A   5      21.438  19.807  17.137  0.00  0.00    +0.243 C 
ATOM      2  O   GLY A   5      22.553  19.382  17.474  0.00  0.00    -0.273 OA
ATOM      3  N   ILE A   6      20.289  19.227  17.393  0.00  0.00    -0.297 N 
ATOM      4  H   ILE A   6      19.437  19.819  17.316  0.00  0.00    +0.150 HD
ENDROOT
BRANCH   1   5
ATOM      5  CA  GLY A   5      21.379  21.096  16.309  0.00  0.00    +0.176 C 
BRANCH   5   7
ATOM      6  C   GLY A   4      23.251  22.514  15.433  0.00  0.00    +0.243 C 
ATOM      7  N   GLY A   5      22.658  21.408  15.741  0.00  0.00    -0.295 N 
ATOM      8  H   GLY A   5      23.230  20.565  15.533  0.00  0.00    +0.150 HD
ATOM      9  O   GLY A   4      22.833  23.676  15.421  0.00  0.00    -0.273 OA
BRANCH   6  10
ATOM     10  CA  GLY A   4      24.691  22.370  14.961  0.00  0.00    +0.176 C 
BRANCH  10  12
ATOM     11  C   ILE A   3      25.104  23.694  13.002  0.00  0.00    +0.241 C 
ATOM     12  N   GLY A   4      24.982  23.651  14.319  0.00  0.00    -0.295 N 
ATOM     13  H   GLY A   4      25.091  24.514  14.888  0.00  0.00    +0.150 HD
ATOM     14  O   ILE A   3      24.918  22.731  12.288  0.00  0.00    -0.273 OA
BRANCH  11  15
ATOM     15  CA  ILE A   3      25.581  25.028  12.425  0.00  0.00    +0.149 C 
BRANCH  15  18
ATOM     16  C   MET A   2      27.650  25.332  11.175  0.00  0.00    +0.241 C 
ATOM     17  O   MET A   2      28.104  26.151  11.980  0.00  0.00    -0.273 OA
ATOM     18  N   ILE A   3      26.475  24.766  11.298  0.00  0.00    -0.297 N 
ATOM     19  H   ILE A   3      26.164  24.101  10.561  0.00  0.00    +0.150 HD
BRANCH  16  20
ATOM     20  CA  MET A   2      28.523  24.928   9.992  0.00  0.00    +0.149 C 
BRANCH  20  22
ATOM     21  C   LYS A   1      28.688  26.569   8.184  0.00  0.00    +0.238 C 
ATOM     22  N   MET A   2      29.044  26.123   9.389  0.00  0.00    -0.297 N 
ATOM     23  H   MET A   2      29.743  26.675   9.926  0.00  0.00    +0.150 HD
ATOM     24  O   LYS A   1      27.996  25.929   7.391  0.00  0.00    -0.274 OA
BRANCH  21  25
ATOM     25  CA  LYS A   1      29.185  27.969   7.817  0.00  0.00    +0.145 C 
BRANCH  25  26
ATOM     26  N   LYS A   1      29.283  28.022   6.349  0.00  0.00    -0.238 NA
ATOM     27  H   LYS A   1      28.630  27.448   5.778  0.00  0.00    +0.142 HD
ENDBRANCH  25  26
BRANCH  25  28
ATOM     28  CB  LYS A   1      28.229  29.035   8.294  0.00  0.00    +0.026 C 
BRANCH  28  29
ATOM     29  CG  LYS A   1      28.093  29.274   9.787  0.00  0.00    -0.000 C 
BRANCH  29  30
ATOM     30  CD  LYS A   1      27.042  30.284  10.131  0.00  0.00    -0.024 C 
BRANCH  30  31
ATOM     31  CE  LYS A   1      26.829  30.445  11.620  0.00  0.00    -0.086 C 
BRANCH  31  32
ATOM     32  NZ  LYS A   1      27.967  31.213  12.157  0.00  0.00    +0.380 N 
ATOM     33  HZ1 LYS A   1      27.846  31.339  13.182  0.00  0.00    -0.089 HD
ATOM     34  HZ2 LYS A   1      28.850  30.696  11.972  0.00  0.00    -0.089 HD
ATOM     35  HZ3 LYS A   1      28.005  32.144  11.694  0.00  0.00    -0.089 HD
ENDBRANCH  31  32
ENDBRANCH  30  31
ENDBRANCH  29  30
ENDBRANCH  28  29
ENDBRANCH  25  28
ENDBRANCH  21  25
ENDBRANCH  20  22
BRANCH  20  36
ATOM     36  CB  MET A   2      29.627  23.995  10.484  0.00  0.00    +0.041 C 
BRANCH  36  37
ATOM     37  CG  MET A   2      30.388  23.284   9.379  0.00  0.00    +0.060 C 
BRANCH  37  38
ATOM     38  SD  MET A   2      29.444  21.907   8.704  0.00  0.00    -0.139 S 
ATOM     39  CE  MET A   2      30.056  20.565   9.765  0.00  0.00    +0.069 C 
ENDBRANCH  37  38
ENDBRANCH  36  37
ENDBRANCH  20  36
ENDBRANCH  16  20
ENDBRANCH  15  18
BRANCH  15  40
ATOM     40  CB  ILE A   3      24.352  25.883  12.134  0.00  0.00    +0.027 C 
ATOM     41  CG2 ILE A   3      24.718  27.317  11.893  0.00  0.00    +0.002 C 
BRANCH  40  42
ATOM     42  CG1 ILE A   3      23.483  25.305  11.030  0.00  0.00    +0.002 C 
ATOM     43  CD1 ILE A   3      22.136  26.052  10.904  0.00  0.00    +0.000 C 
ENDBRANCH  40  42
ENDBRANCH  15  40
ENDBRANCH  11  15
ENDBRANCH  10  12
ENDBRANCH   6  10
ENDBRANCH   5   7
ENDBRANCH   1   5
BRANCH   3  44
ATOM     44  CA  ILE A   6      20.088  17.824  17.778  0.00  0.00    +0.149 C 
BRANCH  44  45
ATOM     45  C   ILE A   6      20.396  17.018  16.536  0.00  0.00    +0.241 C 
ATOM     46  N   GLY A   7      21.138  15.923  16.682  0.00  0.00    -0.295 N 
ATOM     47  H   GLY A   7      21.437  15.622  17.631  0.00  0.00    +0.150 HD
ATOM     48  O   ILE A   6      19.973  17.393  15.437  0.00  0.00    -0.273 OA
BRANCH  46  49
ATOM     49  CA  GLY A   7      21.529  15.152  15.524  0.00  0.00    +0.176 C 
BRANCH  49  50
ATOM     50  C   GLY A   7      22.814  15.657  14.901  0.00  0.00    +0.243 C 
ATOM     51  N   GLY A   8      23.475  16.699  15.377  0.00  0.00    -0.295 N 
ATOM     52  H   GLY A   8      23.104  17.220  16.197  0.00  0.00    +0.150 HD
ATOM     53  O   GLY A   7      23.222  14.996  13.941  0.00  0.00    -0.273 OA
BRANCH  51  54
ATOM     54  CA  GLY A   8      24.721  17.117  14.753  0.00  0.00    +0.176 C 
BRANCH  54  55
ATOM     55  C   GLY A   8      24.658  18.364  13.891  0.00  0.00    +0.243 C 
ATOM     56  O   GLY A   8      23.715  19.147  14.016  0.00  0.00    -0.273 OA
ATOM     57  N   PHE A   9      25.684  18.547  13.046  0.00  0.00    -0.297 N 
ATOM     58  H   PHE A   9      26.374  17.777  12.935  0.00  0.00    +0.150 HD
BRANCH  57  59
ATOM     59  CA  PHE A   9      25.881  19.763  12.278  0.00  0.00    +0.153 C 
BRANCH  59  60
ATOM     60  C   PHE A   9      25.421  19.620  10.844  0.00  0.00    +0.241 C 
ATOM     61  O   PHE A   9      25.504  18.536  10.283  0.00  0.00    -0.273 OA
ATOM     62  N   ILE A  10      24.983  20.709  10.257  0.00  0.00    -0.298 N 
ATOM     63  H   ILE A  10      24.735  21.529  10.847  0.00  0.00    +0.150 HD
BRANCH  62  64
ATOM     64  CA  ILE A  10      24.831  20.816   8.816  0.00  0.00    +0.137 C 
BRANCH  64  65
ATOM     65  CB  ILE A  10      23.366  20.998   8.395  0.00  0.00    +0.026 C 
ATOM     66  CG2 ILE A  10      22.586  19.743   8.806  0.00  0.00    +0.002 C 
BRANCH  65  67
ATOM     67  CG1 ILE A  10      22.750  22.306   8.876  0.00  0.00    +0.002 C 
ATOM     68  CD1 ILE A  10      21.337  22.482   8.323  0.00  0.00    +0.000 C 
ENDBRANCH  65  67
ENDBRANCH  64  65
BRANCH  64  69
ATOM     69  C   ILE A  10      25.657  21.986   8.289  0.00  0.00    +0.227 C 
ATOM     70  O   ILE A  10      25.902  22.987   8.962  0.00  0.00    -0.286 OA
ENDBRANCH  64  69
ENDBRANCH  62  64
ENDBRANCH  59  60
BRANCH  59  71
ATOM     71  CB  PHE A   9      27.331  20.204  12.290  0.00  0.00    +0.055 C 
BRANCH  71  72
ATOM     72  CG  PHE A   9      27.786  20.768  13.618  0.00  0.00    -0.020 A 
ATOM     73  CD2 PHE A   9      28.063  19.930  14.664  0.00  0.00    -0.004 A 
ATOM     74  CE2 PHE A   9      28.479  20.439  15.861  0.00  0.00    -0.000 A 
ATOM     75  CZ  PHE A   9      28.588  21.776  16.001  0.00  0.00    -0.000 A 
ATOM     76  CE1 PHE A   9      28.307  22.644  14.970  0.00  0.00    -0.000 A 
ATOM     77  CD1 PHE A   9      27.932  22.132  13.760  0.00  0.00    -0.004 A 
ENDBRANCH  71  72
ENDBRANCH  59  71
ENDBRANCH  57  59
ENDBRANCH  54  55
ENDBRANCH  51  54
ENDBRANCH  49  50
ENDBRANCH  46  49
ENDBRANCH  44  45
BRANCH  44  78
ATOM     78  CB  ILE A   6      18.679  17.551  18.319  0.00  0.00    +0.027 C 
ATOM     79  CG2 ILE A   6      18.258  16.079  18.132  0.00  0.00    +0.002 C 
BRANCH  78  80
ATOM     80  CG1 ILE A   6      18.483  17.903  19.798  0.00  0.00    +0.002 C 
ATOM     81  CD1 ILE A   6      17.038  18.055  20.203  0.00  0.00    +0.000 C 
ENDBRANCH  78  80
ENDBRANCH  44  78
ENDBRANCH   3  44
TORSDOF 36
REMARK  Name = ../refined-set-2016/3ok9/3ok9_pocket.pdb
REMARK  228 active torsions:
REMARK  status: ('A' for Active; 'I' for Inactive)
REMARK    1  A    between atoms: _1  and  _3
REMARK    2  A    between atoms: _3  and  _4
REMARK    3  A    between atoms: _3  and  _6
REMARK    4  A    between atoms: _6  and  _7
REMARK    5  A    between atoms: _7  and  _8
REMARK    6  A    between atoms: _8  and  _9
REMARK    7  A    between atoms: _18  and  _20
REMARK    8  A    between atoms: _20  and  _21
REMARK    9  A    between atoms: _20  and  _23
REMARK   10  A    between atoms: _23  and  _24
REMARK   11  A    between atoms: _27  and  _29
REMARK   12  A    between atoms: _29  and  _30
REMARK   13  A    between atoms: _29  and  _32
REMARK   14  A    between atoms: _32  and  _33
REMARK   15  A    between atoms: _36  and  _38
REMARK   16  A    between atoms: _38  and  _39
REMARK   17  A    between atoms: _38  and  _41
REMARK   18  A    between atoms: _41  and  _42
REMARK   19  A    between atoms: _45  and  _47
REMARK   20  A    between atoms: _47  and  _48
REMARK   21  A    between atoms: _47  and  _50
REMARK   22  A    between atoms: _50  and  _51
REMARK   23  A    between atoms: _54  and  _56
REMARK   24  A    between atoms: _56  and  _57
REMARK   25  A    between atoms: _59  and  _61
REMARK   26  A    between atoms: _61  and  _62
REMARK   27  A    between atoms: _65  and  _67
REMARK   28  A    between atoms: _67  and  _68
REMARK   29  A    between atoms: _67  and  _70
REMARK   30  A    between atoms: _70  and  _71
REMARK   31  A    between atoms: _74  and  _76
REMARK   32  A    between atoms: _76  and  _77
REMARK   33  A    between atoms: _76  and  _79
REMARK   34  A    between atoms: _79  and  _80
REMARK   35  A    between atoms: _83  and  _85
REMARK   36  A    between atoms: _85  and  _86
REMARK   37  A    between atoms: _85  and  _88
REMARK   38  A    between atoms: _88  and  _89
REMARK   39  A    between atoms: _92  and  _94
REMARK   40  A    between atoms: _94  and  _95
REMARK   41  A    between atoms: _94  and  _97
REMARK   42  A    between atoms: _100  and  _102
REMARK   43  A    between atoms: _102  and  _103
REMARK   44  A    between atoms: _102  and  _105
REMARK   45  A    between atoms: _105  and  _106
REMARK   46  A    between atoms: _106  and  _107
REMARK   47  A    between atoms: _107  and  _108
REMARK   48  A    between atoms: _108  and  _109
REMARK   49  A    between atoms: _113  and  _115
REMARK   50  A    between atoms: _115  and  _116
REMARK   51  A    between atoms: _115  and  _118
REMARK   52  A    between atoms: _118  and  _119
REMARK   53  A    between atoms: _119  and  _120
REMARK   54  A    between atoms: _122  and  _124
REMARK   55  A    between atoms: _124  and  _125
REMARK   56  A    between atoms: _124  and  _127
REMARK   57  A    between atoms: _127  and  _128
REMARK   58  A    between atoms: _131  and  _133
REMARK   59  A    between atoms: _133  and  _134
REMARK   60  A    between atoms: _136  and  _138
REMARK   61  A    between atoms: _138  and  _139
REMARK   62  A    between atoms: _141  and  _143
REMARK   63  A    between atoms: _143  and  _144
REMARK   64  A    between atoms: _143  and  _146
REMARK   65  A    between atoms: _144  and  _145
REMARK   66  A    between atoms: _144  and  _150
REMARK   67  A    between atoms: _146  and  _147
REMARK   68  A    between atoms: _150  and  _152
REMARK   69  A    between atoms: _152  and  _153
REMARK   70  A    between atoms: _155  and  _157
REMARK   71  A    between atoms: _157  and  _158
REMARK   72  A    between atoms: _160  and  _162
REMARK   73  A    between atoms: _162  and  _163
REMARK   74  A    between atoms: _162  and  _165
REMARK   75  A    between atoms: _165  and  _166
REMARK   76  A    between atoms: _172  and  _174
REMARK   77  A    between atoms: _174  and  _175
REMARK   78  A    between atoms: _174  and  _177
REMARK   79  A    between atoms: _177  and  _178
REMARK   80  A    between atoms: _181  and  _183
REMARK   81  A    between atoms: _183  and  _184
REMARK   82  A    between atoms: _183  and  _186
REMARK   83  A    between atoms: _186  and  _187
REMARK   84  A    between atoms: _190  and  _192
REMARK   85  A    between atoms: _192  and  _193
REMARK   86  A    between atoms: _192  and  _195
REMARK   87  A    between atoms: _195  and  _196
REMARK   88  A    between atoms: _200  and  _201
REMARK   89  A    between atoms: _206  and  _208
REMARK   90  A    between atoms: _208  and  _209
REMARK   91  A    between atoms: _208  and  _211
REMARK   92  A    between atoms: _214  and  _216
REMARK   93  A    between atoms: _216  and  _217
REMARK   94  A    between atoms: _216  and  _219
REMARK   95  A    between atoms: _219  and  _220
REMARK   96  A    between atoms: _225  and  _227
REMARK   97  A    between atoms: _227  and  _228
REMARK   98  A    between atoms: _227  and  _230
REMARK   99  A    between atoms: _230  and  _231
REMARK  100  A    between atoms: _234  and  _236
REMARK  101  A    between atoms: _236  and  _237
REMARK  102  A    between atoms: _239  and  _241
REMARK  103  A    between atoms: _241  and  _242
REMARK  104  A    between atoms: _241  and  _244
REMARK  105  A    between atoms: _244  and  _245
REMARK  106  A    between atoms: _245  and  _246
REMARK  107  A    between atoms: _246  and  _247
REMARK  108  A    between atoms: _256  and  _258
REMARK  109  A    between atoms: _258  and  _259
REMARK  110  A    between atoms: _258  and  _261
REMARK  111  A    between atoms: _261  and  _262
REMARK  112  A    between atoms: _267  and  _269
REMARK  113  A    between atoms: _269  and  _270
REMARK  114  A    between atoms: _269  and  _272
REMARK  115  A    between atoms: _272  and  _273
REMARK  116  A    between atoms: _273  and  _274
REMARK  117  A    between atoms: _274  and  _275
REMARK  118  A    between atoms: _284  and  _286
REMARK  119  A    between atoms: _286  and  _287
REMARK  120  A    between atoms: _286  and  _289
REMARK  121  A    between atoms: _289  and  _290
REMARK  122  A    between atoms: _293  and  _295
REMARK  123  A    between atoms: _295  and  _296
REMARK  124  A    between atoms: _295  and  _298
REMARK  125  A    between atoms: _298  and  _299
REMARK  126  A    between atoms: _302  and  _304
REMARK  127  A    between atoms: _304  and  _305
REMARK  128  A    between atoms: _304  and  _307
REMARK  129  A    between atoms: _307  and  _308
REMARK  130  A    between atoms: _311  and  _313
REMARK  131  A    between atoms: _313  and  _314
REMARK  132  A    between atoms: _313  and  _316
REMARK  133  A    between atoms: _316  and  _317
REMARK  134  A    between atoms: _320  and  _322
REMARK  135  A    between atoms: _322  and  _323
REMARK  136  A    between atoms: _325  and  _327
REMARK  137  A    between atoms: _327  and  _328
REMARK  138  A    between atoms: _331  and  _333
REMARK  139  A    between atoms: _333  and  _334
REMARK  140  A    between atoms: _333  and  _336
REMARK  141  A    between atoms: _336  and  _337
REMARK  142  A    between atoms: _340  and  _342
REMARK  143  A    between atoms: _342  and  _343
REMARK  144  A    between atoms: _342  and  _345
REMARK  145  A    between atoms: _345  and  _346
REMARK  146  A    between atoms: _349  and  _351
REMARK  147  A    between atoms: _351  and  _352
REMARK  148  A    between atoms: _351  and  _354
REMARK  149  A    between atoms: _354  and  _355
REMARK  150  A    between atoms: _358  and  _360
REMARK  151  A    between atoms: _360  and  _361
REMARK  152  A    between atoms: _360  and  _363
REMARK  153  A    between atoms: _366  and  _368
REMARK  154  A    between atoms: _368  and  _369
REMARK  155  A    between atoms: _368  and  _371
REMARK  156  A    between atoms: _371  and  _372
REMARK  157  A    between atoms: _372  and  _373
REMARK  158  A    between atoms: _373  and  _374
REMARK  159  A    between atoms: _374  and  _375
REMARK  160  A    between atoms: _379  and  _381
REMARK  161  A    between atoms: _381  and  _382
REMARK  162  A    between atoms: _381  and  _384
REMARK  163  A    between atoms: _384  and  _385
REMARK  164  A    between atoms: _385  and  _386
REMARK  165  A    between atoms: _388  and  _390
REMARK  166  A    between atoms: _390  and  _391
REMARK  167  A    between atoms: _390  and  _393
REMARK  168  A    between atoms: _393  and  _394
REMARK  169  A    between atoms: _397  and  _399
REMARK  170  A    between atoms: _399  and  _400
REMARK  171  A    between atoms: _402  and  _404
REMARK  172  A    between atoms: _404  and  _405
REMARK  173  A    between atoms: _407  and  _409
REMARK  174  A    between atoms: _409  and  _410
REMARK  175  A    between atoms: _409  and  _412
REMARK  176  A    between atoms: _412  and  _413
REMARK  177  A    between atoms: _416  and  _418
REMARK  178  A    between atoms: _418  and  _419
REMARK  179  A    between atoms: _421  and  _423
REMARK  180  A    between atoms: _423  and  _424
REMARK  181  A    between atoms: _426  and  _428
REMARK  182  A    between atoms: _428  and  _429
REMARK  183  A    between atoms: _428  and  _431
REMARK  184  A    between atoms: _431  and  _432
REMARK  185  A    between atoms: _438  and  _440
REMARK  186  A    between atoms: _440  and  _441
REMARK  187  A    between atoms: _440  and  _443
REMARK  188  A    between atoms: _443  and  _444
REMARK  189  A    between atoms: _447  and  _449
REMARK  190  A    between atoms: _449  and  _450
REMARK  191  A    between atoms: _449  and  _452
REMARK  192  A    between atoms: _455  and  _457
REMARK  193  A    between atoms: _457  and  _458
REMARK  194  A    between atoms: _457  and  _460
REMARK  195  A    between atoms: _460  and  _461
REMARK  196  A    between atoms: _465  and  _466
REMARK  197  A    between atoms: _471  and  _473
REMARK  198  A    between atoms: _473  and  _474
REMARK  199  A    between atoms: _473  and  _476
REMARK  200  A    between atoms: _476  and  _477
REMARK  201  A    between atoms: _481  and  _482
REMARK  202  A    between atoms: _487  and  _489
REMARK  203  A    between atoms: _489  and  _490
REMARK  204  A    between atoms: _489  and  _492
REMARK  205  A    between atoms: _495  and  _497
REMARK  206  A    between atoms: _497  and  _498
REMARK  207  A    between atoms: _497  and  _500
REMARK  208  A    between atoms: _500  and  _501
REMARK  209  A    between atoms: _506  and  _508
REMARK  210  A    between atoms: _508  and  _509
REMARK  211  A    between atoms: _508  and  _511
REMARK  212  A    between atoms: _511  and  _512
REMARK  213  A    between atoms: _515  and  _517
REMARK  214  A    between atoms: _517  and  _518
REMARK  215  A    between atoms: _517  and  _520
REMARK  216  A    between atoms: _520  and  _521
REMARK  217  A    between atoms: _524  and  _526
REMARK  218  A    between atoms: _526  and  _527
REMARK  219  A    between atoms: _529  and  _531
REMARK  220  A    between atoms: _531  and  _532
REMARK  221  A    between atoms: _531  and  _534
REMARK  222  A    between atoms: _534  and  _535
REMARK  223  A    between atoms: _535  and  _536
REMARK  224  A    between atoms: _536  and  _537
REMARK  225  A    between atoms: _546  and  _548
REMARK  226  A    between atoms: _548  and  _549
REMARK  227  A    between atoms: _548  and  _551
REMARK  228  A    between atoms: _551  and  _552
REMARK                            x       y       z     vdW  Elec       q    Type
REMARK                         _______ _______ _______ _____ _____    ______ ____
ROOT
ATOM      1  CA  VAL A   1      24.904  26.094   5.248  0.00  0.00    +0.133 C 
ENDROOT
BRANCH   1   2
ATOM      2  CB  VAL A   1      24.027  26.701   6.342  0.00  0.00    +0.023 C 
ATOM      3  CG2 VAL A   1      24.862  27.420   7.417  0.00  0.00    +0.002 C 
ATOM      4  CG1 VAL A   1      23.177  25.657   7.046  0.00  0.00    +0.002 C 
ENDBRANCH   1   2
BRANCH   1   5
ATOM      5  N   VAL A   1      25.825  25.099   5.806  0.00  0.00    -0.239 NA
ATOM      6  H   VAL A   1      26.637  25.427   6.367  0.00  0.00    +0.142 HD
ENDBRANCH   1   5
BRANCH   1   7
ATOM      7  C   VAL A   1      25.686  27.191   4.519  0.00  0.00    +0.224 C 
ATOM      8  O   VAL A   1      26.890  27.322   4.681  0.00  0.00    -0.287 OA
ENDBRANCH   1   7
TORSDOF 3
REMARK  Name = ../refined-set-2016/3ok9/3ok9_pocket.pdb
REMARK  228 active torsions:
REMARK  status: ('A' for Active; 'I' for Inactive)
REMARK    1  A    between atoms: _1  and  _3
REMARK    2  A    between atoms: _3  and  _4
REMARK    3  A    between atoms: _3  and  _6
REMARK    4  A    between atoms: _6  and  _7
REMARK    5  A    between atoms: _7  and  _8
REMARK    6  A    between atoms: _8  and  _9
REMARK    7  A    between atoms: _18  and  _20
REMARK    8  A    between atoms: _20  and  _21
REMARK    9  A    between atoms: _20  and  _23
REMARK   10  A    between atoms: _23  and  _24
REMARK   11  A    between atoms: _27  and  _29
REMARK   12  A    between atoms: _29  and  _30
REMARK   13  A    between atoms: _29  and  _32
REMARK   14  A    between atoms: _32  and  _33
REMARK   15  A    between atoms: _36  and  _38
REMARK   16  A    between atoms: _38  and  _39
REMARK   17  A    between atoms: _38  and  _41
REMARK   18  A    between atoms: _41  and  _42
REMARK   19  A    between atoms: _45  and  _47
REMARK   20  A    between atoms: _47  and  _48
REMARK   21  A    between atoms: _47  and  _50
REMARK   22  A    between atoms: _50  and  _51
REMARK   23  A    between atoms: _54  and  _56
REMARK   24  A    between atoms: _56  and  _57
REMARK   25  A    between atoms: _59  and  _61
REMARK   26  A    between atoms: _61  and  _62
REMARK   27  A    between atoms: _65  and  _67
REMARK   28  A    between atoms: _67  and  _68
REMARK   29  A    between atoms: _67  and  _70
REMARK   30  A    between atoms: _70  and  _71
REMARK   31  A    between atoms: _74  and  _76
REMARK   32  A    between atoms: _76  and  _77
REMARK   33  A    between atoms: _76  and  _79
REMARK   34  A    between atoms: _79  and  _80
REMARK   35  A    between atoms: _83  and  _85
REMARK   36  A    between atoms: _85  and  _86
REMARK   37  A    between atoms: _85  and  _88
REMARK   38  A    between atoms: _88  and  _89
REMARK   39  A    between atoms: _92  and  _94
REMARK   40  A    between atoms: _94  and  _95
REMARK   41  A    between atoms: _94  and  _97
REMARK   42  A    between atoms: _100  and  _102
REMARK   43  A    between atoms: _102  and  _103
REMARK   44  A    between atoms: _102  and  _105
REMARK   45  A    between atoms: _105  and  _106
REMARK   46  A    between atoms: _106  and  _107
REMARK   47  A    between atoms: _107  and  _108
REMARK   48  A    between atoms: _108  and  _109
REMARK   49  A    between atoms: _113  and  _115
REMARK   50  A    between atoms: _115  and  _116
REMARK   51  A    between atoms: _115  and  _118
REMARK   52  A    between atoms: _118  and  _119
REMARK   53  A    between atoms: _119  and  _120
REMARK   54  A    between atoms: _122  and  _124
REMARK   55  A    between atoms: _124  and  _125
REMARK   56  A    between atoms: _124  and  _127
REMARK   57  A    between atoms: _127  and  _128
REMARK   58  A    between atoms: _131  and  _133
REMARK   59  A    between atoms: _133  and  _134
REMARK   60  A    between atoms: _136  and  _138
REMARK   61  A    between atoms: _138  and  _139
REMARK   62  A    between atoms: _141  and  _143
REMARK   63  A    between atoms: _143  and  _144
REMARK   64  A    between atoms: _143  and  _146
REMARK   65  A    between atoms: _144  and  _145
REMARK   66  A    between atoms: _144  and  _150
REMARK   67  A    between atoms: _146  and  _147
REMARK   68  A    between atoms: _150  and  _152
REMARK   69  A    between atoms: _152  and  _153
REMARK   70  A    between atoms: _155  and  _157
REMARK   71  A    between atoms: _157  and  _158
REMARK   72  A    between atoms: _160  and  _162
REMARK   73  A    between atoms: _162  and  _163
REMARK   74  A    between atoms: _162  and  _165
REMARK   75  A    between atoms: _165  and  _166
REMARK   76  A    between atoms: _172  and  _174
REMARK   77  A    between atoms: _174  and  _175
REMARK   78  A    between atoms: _174  and  _177
REMARK   79  A    between atoms: _177  and  _178
REMARK   80  A    between atoms: _181  and  _183
REMARK   81  A    between atoms: _183  and  _184
REMARK   82  A    between atoms: _183  and  _186
REMARK   83  A    between atoms: _186  and  _187
REMARK   84  A    between atoms: _190  and  _192
REMARK   85  A    between atoms: _192  and  _193
REMARK   86  A    between atoms: _192  and  _195
REMARK   87  A    between atoms: _195  and  _196
REMARK   88  A    between atoms: _200  and  _201
REMARK   89  A    between atoms: _206  and  _208
REMARK   90  A    between atoms: _208  and  _209
REMARK   91  A    between atoms: _208  and  _211
REMARK   92  A    between atoms: _214  and  _216
REMARK   93  A    between atoms: _216  and  _217
REMARK   94  A    between atoms: _216  and  _219
REMARK   95  A    between atoms: _219  and  _220
REMARK   96  A    between atoms: _225  and  _227
REMARK   97  A    between atoms: _227  and  _228
REMARK   98  A    between atoms: _227  and  _230
REMARK   99  A    between atoms: _230  and  _231
REMARK  100  A    between atoms: _234  and  _236
REMARK  101  A    between atoms: _236  and  _237
REMARK  102  A    between atoms: _239  and  _241
REMARK  103  A    between atoms: _241  and  _242
REMARK  104  A    between atoms: _241  and  _244
REMARK  105  A    between atoms: _244  and  _245
REMARK  106  A    between atoms: _245  and  _246
REMARK  107  A    between atoms: _246  and  _247
REMARK  108  A    between atoms: _256  and  _258
REMARK  109  A    between atoms: _258  and  _259
REMARK  110  A    between atoms: _258  and  _261
REMARK  111  A    between atoms: _261  and  _262
REMARK  112  A    between atoms: _267  and  _269
REMARK  113  A    between atoms: _269  and  _270
REMARK  114  A    between atoms: _269  and  _272
REMARK  115  A    between atoms: _272  and  _273
REMARK  116  A    between atoms: _273  and  _274
REMARK  117  A    between atoms: _274  and  _275
REMARK  118  A    between atoms: _284  and  _286
REMARK  119  A    between atoms: _286  and  _287
REMARK  120  A    between atoms: _286  and  _289
REMARK  121  A    between atoms: _289  and  _290
REMARK  122  A    between atoms: _293  and  _295
REMARK  123  A    between atoms: _295  and  _296
REMARK  124  A    between atoms: _295  and  _298
REMARK  125  A    between atoms: _298  and  _299
REMARK  126  A    between atoms: _302  and  _304
REMARK  127  A    between atoms: _304  and  _305
REMARK  128  A    between atoms: _304  and  _307
REMARK  129  A    between atoms: _307  and  _308
REMARK  130  A    between atoms: _311  and  _313
REMARK  131  A    between atoms: _313  and  _314
REMARK  132  A    between atoms: _313  and  _316
REMARK  133  A    between atoms: _316  and  _317
REMARK  134  A    between atoms: _320  and  _322
REMARK  135  A    between atoms: _322  and  _323
REMARK  136  A    between atoms: _325  and  _327
REMARK  137  A    between atoms: _327  and  _328
REMARK  138  A    between atoms: _331  and  _333
REMARK  139  A    between atoms: _333  and  _334
REMARK  140  A    between atoms: _333  and  _336
REMARK  141  A    between atoms: _336  and  _337
REMARK  142  A    between atoms: _340  and  _342
REMARK  143  A    between atoms: _342  and  _343
REMARK  144  A    between atoms: _342  and  _345
REMARK  145  A    between atoms: _345  and  _346
REMARK  146  A    between atoms: _349  and  _351
REMARK  147  A    between atoms: _351  and  _352
REMARK  148  A    between atoms: _351  and  _354
REMARK  149  A    between atoms: _354  and  _355
REMARK  150  A    between atoms: _358  and  _360
REMARK  151  A    between atoms: _360  and  _361
REMARK  152  A    between atoms: _360  and  _363
REMARK  153  A    between atoms: _366  and  _368
REMARK  154  A    between atoms: _368  and  _369
REMARK  155  A    between atoms: _368  and  _371
REMARK  156  A    between atoms: _371  and  _372
REMARK  157  A    between atoms: _372  and  _373
REMARK  158  A    between atoms: _373  and  _374
REMARK  159  A    between atoms: _374  and  _375
REMARK  160  A    between atoms: _379  and  _381
REMARK  161  A    between atoms: _381  and  _382
REMARK  162  A    between atoms: _381  and  _384
REMARK  163  A    between atoms: _384  and  _385
REMARK  164  A    between atoms: _385  and  _386
REMARK  165  A    between atoms: _388  and  _390
REMARK  166  A    between atoms: _390  and  _391
REMARK  167  A    between atoms: _390  and  _393
REMARK  168  A    between atoms: _393  and  _394
REMARK  169  A    between atoms: _397  and  _399
REMARK  170  A    between atoms: _399  and  _400
REMARK  171  A    between atoms: _402  and  _404
REMARK  172  A    between atoms: _404  and  _405
REMARK  173  A    between atoms: _407  and  _409
REMARK  174  A    between atoms: _409  and  _410
REMARK  175  A    between atoms: _409  and  _412
REMARK  176  A    between atoms: _412  and  _413
REMARK  177  A    between atoms: _416  and  _418
REMARK  178  A    between atoms: _418  and  _419
REMARK  179  A    between atoms: _421  and  _423
REMARK  180  A    between atoms: _423  and  _424
REMARK  181  A    between atoms: _426  and  _428
REMARK  182  A    between atoms: _428  and  _429
REMARK  183  A    between atoms: _428  and  _431
REMARK  184  A    between atoms: _431  and  _432
REMARK  185  A    between atoms: _438  and  _440
REMARK  186  A    between atoms: _440  and  _441
REMARK  187  A    between atoms: _440  and  _443
REMARK  188  A    between atoms: _443  and  _444
REMARK  189  A    between atoms: _447  and  _449
REMARK  190  A    between atoms: _449  and  _450
REMARK  191  A    between atoms: _449  and  _452
REMARK  192  A    between atoms: _455  and  _457
REMARK  193  A    between atoms: _457  and  _458
REMARK  194  A    between atoms: _457  and  _460
REMARK  195  A    between atoms: _460  and  _461
REMARK  196  A    between atoms: _465  and  _466
REMARK  197  A    between atoms: _471  and  _473
REMARK  198  A    between atoms: _473  and  _474
REMARK  199  A    between atoms: _473  and  _476
REMARK  200  A    between atoms: _476  and  _477
REMARK  201  A    between atoms: _481  and  _482
REMARK  202  A    between atoms: _487  and  _489
REMARK  203  A    between atoms: _489  and  _490
REMARK  204  A    between atoms: _489  and  _492
REMARK  205  A    between atoms: _495  and  _497
REMARK  206  A    between atoms: _497  and  _498
REMARK  207  A    between atoms: _497  and  _500
REMARK  208  A    between atoms: _500  and  _501
REMARK  209  A    between atoms: _506  and  _508
REMARK  210  A    between atoms: _508  and  _509
REMARK  211  A    between atoms: _508  and  _511
REMARK  212  A    between atoms: _511  and  _512
REMARK  213  A    between atoms: _515  and  _517
REMARK  214  A    between atoms: _517  and  _518
REMARK  215  A    between atoms: _517  and  _520
REMARK  216  A    between atoms: _520  and  _521
REMARK  217  A    between atoms: _524  and  _526
REMARK  218  A    between atoms: _526  and  _527
REMARK  219  A    between atoms: _529  and  _531
REMARK  220  A    between atoms: _531  and  _532
REMARK  221  A    between atoms: _531  and  _534
REMARK  222  A    between atoms: _534  and  _535
REMARK  223  A    between atoms: _535  and  _536
REMARK  224  A    between atoms: _536  and  _537
REMARK  225  A    between atoms: _546  and  _548
REMARK  226  A    between atoms: _548  and  _549
REMARK  227  A    between atoms: _548  and  _551
REMARK  228  A    between atoms: _551  and  _552
REMARK                            x       y       z     vdW  Elec       q    Type
REMARK                         _______ _______ _______ _____ _____    ______ ____
ROOT
ATOM      1  CA  LEU A   1      21.466  30.687   6.630  0.00  0.00    +0.133 C 
ENDROOT
BRANCH   1   2
ATOM      2  N   LEU A   1      20.737  31.897   6.969  0.00  0.00    -0.239 NA
ATOM      3  H   LEU A   1      20.094  31.887   7.787  0.00  0.00    +0.142 HD
ENDBRANCH   1   2
BRANCH   1   4
ATOM      4  C   LEU A   1      20.602  29.802   5.773  0.00  0.00    +0.224 C 
ATOM      5  O   LEU A   1      19.444  29.608   6.083  0.00  0.00    -0.287 OA
ENDBRANCH   1   4
BRANCH   1   6
ATOM      6  CB  LEU A   1      21.886  29.992   7.905  0.00  0.00    +0.025 C 
BRANCH   6   7
ATOM      7  CG  LEU A   1      22.612  30.846   8.956  0.00  0.00    +0.002 C 
ATOM      8  CD2 LEU A   1      23.024  29.994  10.138  0.00  0.00    +0.000 C 
ATOM      9  CD1 LEU A   1      23.800  31.569   8.329  0.00  0.00    +0.000 C 
ENDBRANCH   6   7
ENDBRANCH   1   6
TORSDOF 4
REMARK  Name = ../refined-set-2016/3ok9/3ok9_pocket.pdb
REMARK  228 active torsions:
REMARK  status: ('A' for Active; 'I' for Inactive)
REMARK    1  A    between atoms: _1  and  _3
REMARK    2  A    between atoms: _3  and  _4
REMARK    3  A    between atoms: _3  and  _6
REMARK    4  A    between atoms: _6  and  _7
REMARK    5  A    between atoms: _7  and  _8
REMARK    6  A    between atoms: _8  and  _9
REMARK    7  A    between atoms: _18  and  _20
REMARK    8  A    between atoms: _20  and  _21
REMARK    9  A    between atoms: _20  and  _23
REMARK   10  A    between atoms: _23  and  _24
REMARK   11  A    between atoms: _27  and  _29
REMARK   12  A    between atoms: _29  and  _30
REMARK   13  A    between atoms: _29  and  _32
REMARK   14  A    between atoms: _32  and  _33
REMARK   15  A    between atoms: _36  and  _38
REMARK   16  A    between atoms: _38  and  _39
REMARK   17  A    between atoms: _38  and  _41
REMARK   18  A    between atoms: _41  and  _42
REMARK   19  A    between atoms: _45  and  _47
REMARK   20  A    between atoms: _47  and  _48
REMARK   21  A    between atoms: _47  and  _50
REMARK   22  A    between atoms: _50  and  _51
REMARK   23  A    between atoms: _54  and  _56
REMARK   24  A    between atoms: _56  and  _57
REMARK   25  A    between atoms: _59  and  _61
REMARK   26  A    between atoms: _61  and  _62
REMARK   27  A    between atoms: _65  and  _67
REMARK   28  A    between atoms: _67  and  _68
REMARK   29  A    between atoms: _67  and  _70
REMARK   30  A    between atoms: _70  and  _71
REMARK   31  A    between atoms: _74  and  _76
REMARK   32  A    between atoms: _76  and  _77
REMARK   33  A    between atoms: _76  and  _79
REMARK   34  A    between atoms: _79  and  _80
REMARK   35  A    between atoms: _83  and  _85
REMARK   36  A    between atoms: _85  and  _86
REMARK   37  A    between atoms: _85  and  _88
REMARK   38  A    between atoms: _88  and  _89
REMARK   39  A    between atoms: _92  and  _94
REMARK   40  A    between atoms: _94  and  _95
REMARK   41  A    between atoms: _94  and  _97
REMARK   42  A    between atoms: _100  and  _102
REMARK   43  A    between atoms: _102  and  _103
REMARK   44  A    between atoms: _102  and  _105
REMARK   45  A    between atoms: _105  and  _106
REMARK   46  A    between atoms: _106  and  _107
REMARK   47  A    between atoms: _107  and  _108
REMARK   48  A    between atoms: _108  and  _109
REMARK   49  A    between atoms: _113  and  _115
REMARK   50  A    between atoms: _115  and  _116
REMARK   51  A    between atoms: _115  and  _118
REMARK   52  A    between atoms: _118  and  _119
REMARK   53  A    between atoms: _119  and  _120
REMARK   54  A    between atoms: _122  and  _124
REMARK   55  A    between atoms: _124  and  _125
REMARK   56  A    between atoms: _124  and  _127
REMARK   57  A    between atoms: _127  and  _128
REMARK   58  A    between atoms: _131  and  _133
REMARK   59  A    between atoms: _133  and  _134
REMARK   60  A    between atoms: _136  and  _138
REMARK   61  A    between atoms: _138  and  _139
REMARK   62  A    between atoms: _141  and  _143
REMARK   63  A    between atoms: _143  and  _144
REMARK   64  A    between atoms: _143  and  _146
REMARK   65  A    between atoms: _144  and  _145
REMARK   66  A    between atoms: _144  and  _150
REMARK   67  A    between atoms: _146  and  _147
REMARK   68  A    between atoms: _150  and  _152
REMARK   69  A    between atoms: _152  and  _153
REMARK   70  A    between atoms: _155  and  _157
REMARK   71  A    between atoms: _157  and  _158
REMARK   72  A    between atoms: _160  and  _162
REMARK   73  A    between atoms: _162  and  _163
REMARK   74  A    between atoms: _162  and  _165
REMARK   75  A    between atoms: _165  and  _166
REMARK   76  A    between atoms: _172  and  _174
REMARK   77  A    between atoms: _174  and  _175
REMARK   78  A    between atoms: _174  and  _177
REMARK   79  A    between atoms: _177  and  _178
REMARK   80  A    between atoms: _181  and  _183
REMARK   81  A    between atoms: _183  and  _184
REMARK   82  A    between atoms: _183  and  _186
REMARK   83  A    between atoms: _186  and  _187
REMARK   84  A    between atoms: _190  and  _192
REMARK   85  A    between atoms: _192  and  _193
REMARK   86  A    between atoms: _192  and  _195
REMARK   87  A    between atoms: _195  and  _196
REMARK   88  A    between atoms: _200  and  _201
REMARK   89  A    between atoms: _206  and  _208
REMARK   90  A    between atoms: _208  and  _209
REMARK   91  A    between atoms: _208  and  _211
REMARK   92  A    between atoms: _214  and  _216
REMARK   93  A    between atoms: _216  and  _217
REMARK   94  A    between atoms: _216  and  _219
REMARK   95  A    between atoms: _219  and  _220
REMARK   96  A    between atoms: _225  and  _227
REMARK   97  A    between atoms: _227  and  _228
REMARK   98  A    between atoms: _227  and  _230
REMARK   99  A    between atoms: _230  and  _231
REMARK  100  A    between atoms: _234  and  _236
REMARK  101  A    between atoms: _236  and  _237
REMARK  102  A    between atoms: _239  and  _241
REMARK  103  A    between atoms: _241  and  _242
REMARK  104  A    between atoms: _241  and  _244
REMARK  105  A    between atoms: _244  and  _245
REMARK  106  A    between atoms: _245  and  _246
REMARK  107  A    between atoms: _246  and  _247
REMARK  108  A    between atoms: _256  and  _258
REMARK  109  A    between atoms: _258  and  _259
REMARK  110  A    between atoms: _258  and  _261
REMARK  111  A    between atoms: _261  and  _262
REMARK  112  A    between atoms: _267  and  _269
REMARK  113  A    between atoms: _269  and  _270
REMARK  114  A    between atoms: _269  and  _272
REMARK  115  A    between atoms: _272  and  _273
REMARK  116  A    between atoms: _273  and  _274
REMARK  117  A    between atoms: _274  and  _275
REMARK  118  A    between atoms: _284  and  _286
REMARK  119  A    between atoms: _286  and  _287
REMARK  120  A    between atoms: _286  and  _289
REMARK  121  A    between atoms: _289  and  _290
REMARK  122  A    between atoms: _293  and  _295
REMARK  123  A    between atoms: _295  and  _296
REMARK  124  A    between atoms: _295  and  _298
REMARK  125  A    between atoms: _298  and  _299
REMARK  126  A    between atoms: _302  and  _304
REMARK  127  A    between atoms: _304  and  _305
REMARK  128  A    between atoms: _304  and  _307
REMARK  129  A    between atoms: _307  and  _308
REMARK  130  A    between atoms: _311  and  _313
REMARK  131  A    between atoms: _313  and  _314
REMARK  132  A    between atoms: _313  and  _316
REMARK  133  A    between atoms: _316  and  _317
REMARK  134  A    between atoms: _320  and  _322
REMARK  135  A    between atoms: _322  and  _323
REMARK  136  A    between atoms: _325  and  _327
REMARK  137  A    between atoms: _327  and  _328
REMARK  138  A    between atoms: _331  and  _333
REMARK  139  A    between atoms: _333  and  _334
REMARK  140  A    between atoms: _333  and  _336
REMARK  141  A    between atoms: _336  and  _337
REMARK  142  A    between atoms: _340  and  _342
REMARK  143  A    between atoms: _342  and  _343
REMARK  144  A    between atoms: _342  and  _345
REMARK  145  A    between atoms: _345  and  _346
REMARK  146  A    between atoms: _349  and  _351
REMARK  147  A    between atoms: _351  and  _352
REMARK  148  A    between atoms: _351  and  _354
REMARK  149  A    between atoms: _354  and  _355
REMARK  150  A    between atoms: _358  and  _360
REMARK  151  A    between atoms: _360  and  _361
REMARK  152  A    between atoms: _360  and  _363
REMARK  153  A    between atoms: _366  and  _368
REMARK  154  A    between atoms: _368  and  _369
REMARK  155  A    between atoms: _368  and  _371
REMARK  156  A    between atoms: _371  and  _372
REMARK  157  A    between atoms: _372  and  _373
REMARK  158  A    between atoms: _373  and  _374
REMARK  159  A    between atoms: _374  and  _375
REMARK  160  A    between atoms: _379  and  _381
REMARK  161  A    between atoms: _381  and  _382
REMARK  162  A    between atoms: _381  and  _384
REMARK  163  A    between atoms: _384  and  _385
REMARK  164  A    between atoms: _385  and  _386
REMARK  165  A    between atoms: _388  and  _390
REMARK  166  A    between atoms: _390  and  _391
REMARK  167  A    between atoms: _390  and  _393
REMARK  168  A    between atoms: _393  and  _394
REMARK  169  A    between atoms: _397  and  _399
REMARK  170  A    between atoms: _399  and  _400
REMARK  171  A    between atoms: _402  and  _404
REMARK  172  A    between atoms: _404  and  _405
REMARK  173  A    between atoms: _407  and  _409
REMARK  174  A    between atoms: _409  and  _410
REMARK  175  A    between atoms: _409  and  _412
REMARK  176  A    between atoms: _412  and  _413
REMARK  177  A    between atoms: _416  and  _418
REMARK  178  A    between atoms: _418  and  _419
REMARK  179  A    between atoms: _421  and  _423
REMARK  180  A    between atoms: _423  and  _424
REMARK  181  A    between atoms: _426  and  _428
REMARK  182  A    between atoms: _428  and  _429
REMARK  183  A    between atoms: _428  and  _431
REMARK  184  A    between atoms: _431  and  _432
REMARK  185  A    between atoms: _438  and  _440
REMARK  186  A    between atoms: _440  and  _441
REMARK  187  A    between atoms: _440  and  _443
REMARK  188  A    between atoms: _443  and  _444
REMARK  189  A    between atoms: _447  and  _449
REMARK  190  A    between atoms: _449  and  _450
REMARK  191  A    between atoms: _449  and  _452
REMARK  192  A    between atoms: _455  and  _457
REMARK  193  A    between atoms: _457  and  _458
REMARK  194  A    between atoms: _457  and  _460
REMARK  195  A    between atoms: _460  and  _461
REMARK  196  A    between atoms: _465  and  _466
REMARK  197  A    between atoms: _471  and  _473
REMARK  198  A    between atoms: _473  and  _474
REMARK  199  A    between atoms: _473  and  _476
REMARK  200  A    between atoms: _476  and  _477
REMARK  201  A    between atoms: _481  and  _482
REMARK  202  A    between atoms: _487  and  _489
REMARK  203  A    between atoms: _489  and  _490
REMARK  204  A    between atoms: _489  and  _492
REMARK  205  A    between atoms: _495  and  _497
REMARK  206  A    between atoms: _497  and  _498
REMARK  207  A    between atoms: _497  and  _500
REMARK  208  A    between atoms: _500  and  _501
REMARK  209  A    between atoms: _506  and  _508
REMARK  210  A    between atoms: _508  and  _509
REMARK  211  A    between atoms: _508  and  _511
REMARK  212  A    between atoms: _511  and  _512
REMARK  213  A    between atoms: _515  and  _517
REMARK  214  A    between atoms: _517  and  _518
REMARK  215  A    between atoms: _517  and  _520
REMARK  216  A    between atoms: _520  and  _521
REMARK  217  A    between atoms: _524  and  _526
REMARK  218  A    between atoms: _526  and  _527
REMARK  219  A    between atoms: _529  and  _531
REMARK  220  A    between atoms: _531  and  _532
REMARK  221  A    between atoms: _531  and  _534
REMARK  222  A    between atoms: _534  and  _535
REMARK  223  A    between atoms: _535  and  _536
REMARK  224  A    between atoms: _536  and  _537
REMARK  225  A    between atoms: _546  and  _548
REMARK  226  A    between atoms: _548  and  _549
REMARK  227  A    between atoms: _548  and  _551
REMARK  228  A    between atoms: _551  and  _552
REMARK                            x       y       z     vdW  Elec       q    Type
REMARK                         _______ _______ _______ _____ _____    ______ ____
ROOT
ATOM      1  CA  ILE A   6      13.355  28.459  11.227  0.00  0.00    +0.149 C 
ENDROOT
BRANCH   1   2
ATOM      2  C   ILE A   6      13.659  29.936  11.270  0.00  0.00    +0.241 C 
ATOM      3  N   ILE A   7      12.791  30.699  11.954  0.00  0.00    -0.297 N 
ATOM      4  H   ILE A   7      11.901  30.283  12.296  0.00  0.00    +0.150 HD
ATOM      5  O   ILE A   6      14.665  30.363  10.679  0.00  0.00    -0.273 OA
BRANCH   3   6
ATOM      6  CA  ILE A   7      13.080  32.104  12.223  0.00  0.00    +0.149 C 
BRANCH   6   7
ATOM      7  C   ILE A   7      13.682  32.185  13.610  0.00  0.00    +0.241 C 
ATOM      8  O   ILE A   7      13.007  31.851  14.585  0.00  0.00    -0.273 OA
ATOM      9  N   GLY A   8      14.961  32.538  13.644  0.00  0.00    -0.295 N 
ATOM     10  H   GLY A   8      15.447  32.798  12.762  0.00  0.00    +0.150 HD
BRANCH   9  11
ATOM     11  CA  GLY A   8      15.675  32.564  14.878  0.00  0.00    +0.176 C 
BRANCH  11  12
ATOM     12  C   GLY A   8      15.758  33.919  15.516  0.00  0.00    +0.243 C 
ATOM     13  N   ARG A   9      16.458  33.981  16.637  0.00  0.00    -0.297 N 
ATOM     14  H   ARG A   9      17.010  33.160  16.958  0.00  0.00    +0.150 HD
ATOM     15  O   GLY A   8      15.191  34.884  14.991  0.00  0.00    -0.273 OA
BRANCH  13  16
ATOM     16  CA  ARG A   9      16.448  35.209  17.416  0.00  0.00    +0.149 C 
BRANCH  16  17
ATOM     17  C   ARG A   9      16.959  36.422  16.664  0.00  0.00    +0.241 C 
ATOM     18  O   ARG A   9      16.486  37.528  16.929  0.00  0.00    -0.273 OA
ATOM     19  N   ASN A  10      17.911  36.222  15.753  0.00  0.00    -0.298 N 
ATOM     20  H   ASN A  10      18.268  35.264  15.563  0.00  0.00    +0.150 HD
BRANCH  19  21
ATOM     21  CA  ASN A  10      18.440  37.362  15.031  0.00  0.00    +0.146 C 
BRANCH  21  22
ATOM     22  C   ASN A  10      17.382  38.161  14.294  0.00  0.00    +0.227 C 
ATOM     23  O   ASN A  10      17.564  39.366  14.075  0.00  0.00    -0.286 OA
ENDBRANCH  21  22
BRANCH  21  24
ATOM     24  CB  ASN A  10      19.526  36.941  14.049  0.00  0.00    +0.112 C 
BRANCH  24  25
ATOM     25  CG  ASN A  10      19.047  36.219  12.827  0.00  0.00    +0.222 C 
ATOM     26  OD1 ASN A  10      18.312  35.242  12.947  0.00  0.00    -0.275 OA
ATOM     27  ND2 ASN A  10      19.496  36.729  11.667  0.00  0.00    -0.329 N 
ATOM     28 HD21 ASN A  10      20.117  37.563  11.672  0.00  0.00    +0.145 HD
ATOM     29 HD22 ASN A  10      19.222  36.289  10.765  0.00  0.00    +0.145 HD
ENDBRANCH  24  25
ENDBRANCH  21  24
ENDBRANCH  19  21
ENDBRANCH  16  17
BRANCH  16  30
ATOM     30  CB  ARG A   9      17.257  35.005  18.682  0.00  0.00    +0.033 C 
BRANCH  30  31
ATOM     31  CG  ARG A   9      16.639  34.017  19.667  0.00  0.00    +0.045 C 
BRANCH  31  32
ATOM     32  CD  ARG A   9      17.351  33.952  21.024  0.00  0.00    +0.174 C 
BRANCH  32  33
ATOM     33  NE  ARG A   9      18.734  33.545  20.870  0.00  0.00    -0.265 N 
ATOM     34  CZ  ARG A   9      19.808  34.315  20.817  0.00  0.00    +0.342 C 
ATOM     35  NH2 ARG A   9      19.716  35.657  20.973  0.00  0.00    -0.292 N 
ATOM     36 HH21 ARG A   9      18.789  36.099  21.138  0.00  0.00    +0.255 HD
ATOM     37 HH22 ARG A   9      20.572  36.246  20.928  0.00  0.00    +0.255 HD
ATOM     38  NH1 ARG A   9      21.007  33.783  20.636  0.00  0.00    -0.292 N 
ATOM     39 HH11 ARG A   9      21.847  34.395  20.595  0.00  0.00    +0.255 HD
ATOM     40 HH12 ARG A   9      21.109  32.753  20.534  0.00  0.00    +0.255 HD
ATOM     41  HE  ARG A   9      18.902  32.522  20.792  0.00  0.00    +0.259 HD
ENDBRANCH  32  33
ENDBRANCH  31  32
ENDBRANCH  30  31
ENDBRANCH  16  30
ENDBRANCH  13  16
ENDBRANCH  11  12
ENDBRANCH   9  11
ENDBRANCH   6   7
BRANCH   6  42
ATOM     42  CB  ILE A   7      11.839  32.992  12.128  0.00  0.00    +0.027 C 
ATOM     43  CG2 ILE A   7      12.210  34.454  12.430  0.00  0.00    +0.002 C 
BRANCH  42  44
ATOM     44  CG1 ILE A   7      11.109  32.911  10.806  0.00  0.00    +0.002 C 
ATOM     45  CD1 ILE A   7      12.034  33.184   9.595  0.00  0.00    +0.000 C 
ENDBRANCH  42  44
ENDBRANCH   6  42
ENDBRANCH   3   6
ENDBRANCH   1   2
BRANCH   1  48
ATOM     46  C   ASN A   5      12.162  27.332   9.378  0.00  0.00    +0.241 C 
ATOM     47  O   ASN A   5      11.100  27.204   9.978  0.00  0.00    -0.273 OA
ATOM     48  N   ILE A   6      13.214  27.942   9.886  0.00  0.00    -0.297 N 
ATOM     49  H   ILE A   6      14.030  28.064   9.253  0.00  0.00    +0.150 HD
BRANCH  46  50
ATOM     50  CA  ASN A   5      12.314  26.774   7.958  0.00  0.00    +0.158 C 
BRANCH  50  53
ATOM     51  C   VAL A   4      12.664  24.425   8.485  0.00  0.00    +0.241 C 
ATOM     52  O   VAL A   4      13.809  24.653   8.914  0.00  0.00    -0.273 OA
ATOM     53  N   ASN A   5      11.895  25.367   7.961  0.00  0.00    -0.297 N 
ATOM     54  H   ASN A   5      10.979  25.106   7.544  0.00  0.00    +0.150 HD
BRANCH  51  55
ATOM     55  CA  VAL A   4      12.127  23.019   8.594  0.00  0.00    +0.149 C 
BRANCH  55  57
ATOM     56  C   PRO A   3      13.035  20.853   7.908  0.00  0.00    +0.241 C 
ATOM     57  N   VAL A   4      13.201  22.046   8.455  0.00  0.00    -0.297 N 
ATOM     58  H   VAL A   4      14.147  22.302   8.803  0.00  0.00    +0.150 HD
ATOM     59  O   PRO A   3      11.938  20.480   7.481  0.00  0.00    -0.273 OA
BRANCH  56  65
ATOM     60  C   THR A   2      16.033  21.399   7.180  0.00  0.00    +0.246 C 
ATOM     61  N   PRO A   3      15.496  20.571   8.074  0.00  0.00    -0.272 N 
ATOM     62  CD  PRO A   3      16.083  20.130   9.357  0.00  0.00    +0.094 C 
ATOM     63  CG  PRO A   3      14.959  19.372   9.995  0.00  0.00    +0.024 C 
ATOM     64  CB  PRO A   3      14.119  18.852   8.909  0.00  0.00    +0.031 C 
ATOM     65  CA  PRO A   3      14.221  19.907   7.809  0.00  0.00    +0.152 C 
ATOM     66  O   THR A   2      15.502  21.637   6.084  0.00  0.00    -0.273 OA
BRANCH  60  67
ATOM     67  CA  THR A   2      17.349  22.086   7.514  0.00  0.00    +0.176 C 
BRANCH  67  70
ATOM     68  C   PRO A   1      18.814  21.112   5.813  0.00  0.00    +0.239 C 
ATOM     69  O   PRO A   1      18.900  20.053   6.419  0.00  0.00    -0.274 OA
ATOM     70  N   THR A   2      18.189  22.164   6.318  0.00  0.00    -0.295 N 
ATOM     71  H   THR A   2      18.299  23.084   5.845  0.00  0.00    +0.150 HD
BRANCH  68  73
ATOM     72  N   PRO A   1      20.306  22.391   4.319  0.00  0.00    -0.210 NA
ATOM     73  CA  PRO A   1      19.411  21.258   4.430  0.00  0.00    +0.149 C 
ATOM     74  CB  PRO A   1      20.299  20.044   4.044  0.00  0.00    +0.028 C 
ATOM     75  CG  PRO A   1      21.655  20.454   4.501  0.00  0.00    +0.021 C 
ATOM     76  CD  PRO A   1      21.714  21.952   4.276  0.00  0.00    +0.089 C 
ENDBRANCH  68  73
ENDBRANCH  67  70
BRANCH  67  77
ATOM     77  CB  THR A   2      17.083  23.499   8.070  0.00  0.00    +0.137 C 
ATOM     78  CG2 THR A   2      16.486  24.450   7.091  0.00  0.00    +0.034 C 
BRANCH  77  79
ATOM     79  OG1 THR A   2      16.173  23.344   9.154  0.00  0.00    -0.382 OA
ATOM     80  HG1 THR A   2      15.972  24.231   9.544  0.00  0.00    +0.210 HD
ENDBRANCH  77  79
ENDBRANCH  67  77
ENDBRANCH  60  67
ENDBRANCH  56  65
ENDBRANCH  55  57
BRANCH  55  81
ATOM     81  CB  VAL A   4      11.493  22.859   9.986  0.00  0.00    +0.027 C 
ATOM     82  CG2 VAL A   4      12.588  23.019  11.031  0.00  0.00    +0.002 C 
ATOM     83  CG1 VAL A   4      10.377  23.843  10.223  0.00  0.00    +0.002 C 
ENDBRANCH  55  81
ENDBRANCH  51  55
ENDBRANCH  50  53
BRANCH  50  84
ATOM     84  CB  ASN A   5      11.483  27.565   6.964  0.00  0.00    +0.114 C 
BRANCH  84  85
ATOM     85  CG  ASN A   5      11.625  27.166   5.537  0.00  0.00    +0.222 C 
ATOM     86  OD1 ASN A   5      12.737  26.869   5.089  0.00  0.00    -0.275 OA
ATOM     87  ND2 ASN A   5      10.513  27.177   4.828  0.00  0.00    -0.329 N 
ATOM     88 HD21 ASN A   5       9.612  27.439   5.277  0.00  0.00    +0.145 HD
ATOM     89 HD22 ASN A   5      10.537  26.924   3.820  0.00  0.00    +0.145 HD
ENDBRANCH  84  85
ENDBRANCH  50  84
ENDBRANCH  46  50
ENDBRANCH   1  48
BRANCH   1  90
ATOM     90  CB  ILE A   6      14.520  27.714  11.919  0.00  0.00    +0.027 C 
ATOM     91  CG2 ILE A   6      14.843  28.387  13.246  0.00  0.00    +0.002 C 
BRANCH  90  92
ATOM     92  CG1 ILE A   6      14.222  26.222  12.059  0.00  0.00    +0.002 C 
ATOM     93  CD1 ILE A   6      15.458  25.390  12.201  0.00  0.00    +0.000 C 
ENDBRANCH  90  92
ENDBRANCH   1  90
TORSDOF 33
REMARK  Name = ../refined-set-2016/3ok9/3ok9_pocket.pdb
REMARK  228 active torsions:
REMARK  status: ('A' for Active; 'I' for Inactive)
REMARK    1  A    between atoms: _1  and  _3
REMARK    2  A    between atoms: _3  and  _4
REMARK    3  A    between atoms: _3  and  _6
REMARK    4  A    between atoms: _6  and  _7
REMARK    5  A    between atoms: _7  and  _8
REMARK    6  A    between atoms: _8  and  _9
REMARK    7  A    between atoms: _18  and  _20
REMARK    8  A    between atoms: _20  and  _21
REMARK    9  A    between atoms: _20  and  _23
REMARK   10  A    between atoms: _23  and  _24
REMARK   11  A    between atoms: _27  and  _29
REMARK   12  A    between atoms: _29  and  _30
REMARK   13  A    between atoms: _29  and  _32
REMARK   14  A    between atoms: _32  and  _33
REMARK   15  A    between atoms: _36  and  _38
REMARK   16  A    between atoms: _38  and  _39
REMARK   17  A    between atoms: _38  and  _41
REMARK   18  A    between atoms: _41  and  _42
REMARK   19  A    between atoms: _45  and  _47
REMARK   20  A    between atoms: _47  and  _48
REMARK   21  A    between atoms: _47  and  _50
REMARK   22  A    between atoms: _50  and  _51
REMARK   23  A    between atoms: _54  and  _56
REMARK   24  A    between atoms: _56  and  _57
REMARK   25  A    between atoms: _59  and  _61
REMARK   26  A    between atoms: _61  and  _62
REMARK   27  A    between atoms: _65  and  _67
REMARK   28  A    between atoms: _67  and  _68
REMARK   29  A    between atoms: _67  and  _70
REMARK   30  A    between atoms: _70  and  _71
REMARK   31  A    between atoms: _74  and  _76
REMARK   32  A    between atoms: _76  and  _77
REMARK   33  A    between atoms: _76  and  _79
REMARK   34  A    between atoms: _79  and  _80
REMARK   35  A    between atoms: _83  and  _85
REMARK   36  A    between atoms: _85  and  _86
REMARK   37  A    between atoms: _85  and  _88
REMARK   38  A    between atoms: _88  and  _89
REMARK   39  A    between atoms: _92  and  _94
REMARK   40  A    between atoms: _94  and  _95
REMARK   41  A    between atoms: _94  and  _97
REMARK   42  A    between atoms: _100  and  _102
REMARK   43  A    between atoms: _102  and  _103
REMARK   44  A    between atoms: _102  and  _105
REMARK   45  A    between atoms: _105  and  _106
REMARK   46  A    between atoms: _106  and  _107
REMARK   47  A    between atoms: _107  and  _108
REMARK   48  A    between atoms: _108  and  _109
REMARK   49  A    between atoms: _113  and  _115
REMARK   50  A    between atoms: _115  and  _116
REMARK   51  A    between atoms: _115  and  _118
REMARK   52  A    between atoms: _118  and  _119
REMARK   53  A    between atoms: _119  and  _120
REMARK   54  A    between atoms: _122  and  _124
REMARK   55  A    between atoms: _124  and  _125
REMARK   56  A    between atoms: _124  and  _127
REMARK   57  A    between atoms: _127  and  _128
REMARK   58  A    between atoms: _131  and  _133
REMARK   59  A    between atoms: _133  and  _134
REMARK   60  A    between atoms: _136  and  _138
REMARK   61  A    between atoms: _138  and  _139
REMARK   62  A    between atoms: _141  and  _143
REMARK   63  A    between atoms: _143  and  _144
REMARK   64  A    between atoms: _143  and  _146
REMARK   65  A    between atoms: _144  and  _145
REMARK   66  A    between atoms: _144  and  _150
REMARK   67  A    between atoms: _146  and  _147
REMARK   68  A    between atoms: _150  and  _152
REMARK   69  A    between atoms: _152  and  _153
REMARK   70  A    between atoms: _155  and  _157
REMARK   71  A    between atoms: _157  and  _158
REMARK   72  A    between atoms: _160  and  _162
REMARK   73  A    between atoms: _162  and  _163
REMARK   74  A    between atoms: _162  and  _165
REMARK   75  A    between atoms: _165  and  _166
REMARK   76  A    between atoms: _172  and  _174
REMARK   77  A    between atoms: _174  and  _175
REMARK   78  A    between atoms: _174  and  _177
REMARK   79  A    between atoms: _177  and  _178
REMARK   80  A    between atoms: _181  and  _183
REMARK   81  A    between atoms: _183  and  _184
REMARK   82  A    between atoms: _183  and  _186
REMARK   83  A    between atoms: _186  and  _187
REMARK   84  A    between atoms: _190  and  _192
REMARK   85  A    between atoms: _192  and  _193
REMARK   86  A    between atoms: _192  and  _195
REMARK   87  A    between atoms: _195  and  _196
REMARK   88  A    between atoms: _200  and  _201
REMARK   89  A    between atoms: _206  and  _208
REMARK   90  A    between atoms: _208  and  _209
REMARK   91  A    between atoms: _208  and  _211
REMARK   92  A    between atoms: _214  and  _216
REMARK   93  A    between atoms: _216  and  _217
REMARK   94  A    between atoms: _216  and  _219
REMARK   95  A    between atoms: _219  and  _220
REMARK   96  A    between atoms: _225  and  _227
REMARK   97  A    between atoms: _227  and  _228
REMARK   98  A    between atoms: _227  and  _230
REMARK   99  A    between atoms: _230  and  _231
REMARK  100  A    between atoms: _234  and  _236
REMARK  101  A    between atoms: _236  and  _237
REMARK  102  A    between atoms: _239  and  _241
REMARK  103  A    between atoms: _241  and  _242
REMARK  104  A    between atoms: _241  and  _244
REMARK  105  A    between atoms: _244  and  _245
REMARK  106  A    between atoms: _245  and  _246
REMARK  107  A    between atoms: _246  and  _247
REMARK  108  A    between atoms: _256  and  _258
REMARK  109  A    between atoms: _258  and  _259
REMARK  110  A    between atoms: _258  and  _261
REMARK  111  A    between atoms: _261  and  _262
REMARK  112  A    between atoms: _267  and  _269
REMARK  113  A    between atoms: _269  and  _270
REMARK  114  A    between atoms: _269  and  _272
REMARK  115  A    between atoms: _272  and  _273
REMARK  116  A    between atoms: _273  and  _274
REMARK  117  A    between atoms: _274  and  _275
REMARK  118  A    between atoms: _284  and  _286
REMARK  119  A    between atoms: _286  and  _287
REMARK  120  A    between atoms: _286  and  _289
REMARK  121  A    between atoms: _289  and  _290
REMARK  122  A    between atoms: _293  and  _295
REMARK  123  A    between atoms: _295  and  _296
REMARK  124  A    between atoms: _295  and  _298
REMARK  125  A    between atoms: _298  and  _299
REMARK  126  A    between atoms: _302  and  _304
REMARK  127  A    between atoms: _304  and  _305
REMARK  128  A    between atoms: _304  and  _307
REMARK  129  A    between atoms: _307  and  _308
REMARK  130  A    between atoms: _311  and  _313
REMARK  131  A    between atoms: _313  and  _314
REMARK  132  A    between atoms: _313  and  _316
REMARK  133  A    between atoms: _316  and  _317
REMARK  134  A    between atoms: _320  and  _322
REMARK  135  A    between atoms: _322  and  _323
REMARK  136  A    between atoms: _325  and  _327
REMARK  137  A    between atoms: _327  and  _328
REMARK  138  A    between atoms: _331  and  _333
REMARK  139  A    between atoms: _333  and  _334
REMARK  140  A    between atoms: _333  and  _336
REMARK  141  A    between atoms: _336  and  _337
REMARK  142  A    between atoms: _340  and  _342
REMARK  143  A    between atoms: _342  and  _343
REMARK  144  A    between atoms: _342  and  _345
REMARK  145  A    between atoms: _345  and  _346
REMARK  146  A    between atoms: _349  and  _351
REMARK  147  A    between atoms: _351  and  _352
REMARK  148  A    between atoms: _351  and  _354
REMARK  149  A    between atoms: _354  and  _355
REMARK  150  A    between atoms: _358  and  _360
REMARK  151  A    between atoms: _360  and  _361
REMARK  152  A    between atoms: _360  and  _363
REMARK  153  A    between atoms: _366  and  _368
REMARK  154  A    between atoms: _368  and  _369
REMARK  155  A    between atoms: _368  and  _371
REMARK  156  A    between atoms: _371  and  _372
REMARK  157  A    between atoms: _372  and  _373
REMARK  158  A    between atoms: _373  and  _374
REMARK  159  A    between atoms: _374  and  _375
REMARK  160  A    between atoms: _379  and  _381
REMARK  161  A    between atoms: _381  and  _382
REMARK  162  A    between atoms: _381  and  _384
REMARK  163  A    between atoms: _384  and  _385
REMARK  164  A    between atoms: _385  and  _386
REMARK  165  A    between atoms: _388  and  _390
REMARK  166  A    between atoms: _390  and  _391
REMARK  167  A    between atoms: _390  and  _393
REMARK  168  A    between atoms: _393  and  _394
REMARK  169  A    between atoms: _397  and  _399
REMARK  170  A    between atoms: _399  and  _400
REMARK  171  A    between atoms: _402  and  _404
REMARK  172  A    between atoms: _404  and  _405
REMARK  173  A    between atoms: _407  and  _409
REMARK  174  A    between atoms: _409  and  _410
REMARK  175  A    between atoms: _409  and  _412
REMARK  176  A    between atoms: _412  and  _413
REMARK  177  A    between atoms: _416  and  _418
REMARK  178  A    between atoms: _418  and  _419
REMARK  179  A    between atoms: _421  and  _423
REMARK  180  A    between atoms: _423  and  _424
REMARK  181  A    between atoms: _426  and  _428
REMARK  182  A    between atoms: _428  and  _429
REMARK  183  A    between atoms: _428  and  _431
REMARK  184  A    between atoms: _431  and  _432
REMARK  185  A    between atoms: _438  and  _440
REMARK  186  A    between atoms: _440  and  _441
REMARK  187  A    between atoms: _440  and  _443
REMARK  188  A    between atoms: _443  and  _444
REMARK  189  A    between atoms: _447  and  _449
REMARK  190  A    between atoms: _449  and  _450
REMARK  191  A    between atoms: _449  and  _452
REMARK  192  A    between atoms: _455  and  _457
REMARK  193  A    between atoms: _457  and  _458
REMARK  194  A    between atoms: _457  and  _460
REMARK  195  A    between atoms: _460  and  _461
REMARK  196  A    between atoms: _465  and  _466
REMARK  197  A    between atoms: _471  and  _473
REMARK  198  A    between atoms: _473  and  _474
REMARK  199  A    between atoms: _473  and  _476
REMARK  200  A    between atoms: _476  and  _477
REMARK  201  A    between atoms: _481  and  _482
REMARK  202  A    between atoms: _487  and  _489
REMARK  203  A    between atoms: _489  and  _490
REMARK  204  A    between atoms: _489  and  _492
REMARK  205  A    between atoms: _495  and  _497
REMARK  206  A    between atoms: _497  and  _498
REMARK  207  A    between atoms: _497  and  _500
REMARK  208  A    between atoms: _500  and  _501
REMARK  209  A    between atoms: _506  and  _508
REMARK  210  A    between atoms: _508  and  _509
REMARK  211  A    between atoms: _508  and  _511
REMARK  212  A    between atoms: _511  and  _512
REMARK  213  A    between atoms: _515  and  _517
REMARK  214  A    between atoms: _517  and  _518
REMARK  215  A    between atoms: _517  and  _520
REMARK  216  A    between atoms: _520  and  _521
REMARK  217  A    between atoms: _524  and  _526
REMARK  218  A    between atoms: _526  and  _527
REMARK  219  A    between atoms: _529  and  _531
REMARK  220  A    between atoms: _531  and  _532
REMARK  221  A    between atoms: _531  and  _534
REMARK  222  A    between atoms: _534  and  _535
REMARK  223  A    between atoms: _535  and  _536
REMARK  224  A    between atoms: _536  and  _537
REMARK  225  A    between atoms: _546  and  _548
REMARK  226  A    between atoms: _548  and  _549
REMARK  227  A    between atoms: _548  and  _551
REMARK  228  A    between atoms: _551  and  _552
REMARK                            x       y       z     vdW  Elec       q    Type
REMARK                         _______ _______ _______ _____ _____    ______ ____
ROOT
ATOM      1  O   HOH     1      17.953  20.713  16.260  0.00  0.00    +0.000 OA
ENDROOT
TORSDOF 0
REMARK  Name = ../refined-set-2016/3ok9/3ok9_pocket.pdb
REMARK  228 active torsions:
REMARK  status: ('A' for Active; 'I' for Inactive)
REMARK    1  A    between atoms: _1  and  _3
REMARK    2  A    between atoms: _3  and  _4
REMARK    3  A    between atoms: _3  and  _6
REMARK    4  A    between atoms: _6  and  _7
REMARK    5  A    between atoms: _7  and  _8
REMARK    6  A    between atoms: _8  and  _9
REMARK    7  A    between atoms: _18  and  _20
REMARK    8  A    between atoms: _20  and  _21
REMARK    9  A    between atoms: _20  and  _23
REMARK   10  A    between atoms: _23  and  _24
REMARK   11  A    between atoms: _27  and  _29
REMARK   12  A    between atoms: _29  and  _30
REMARK   13  A    between atoms: _29  and  _32
REMARK   14  A    between atoms: _32  and  _33
REMARK   15  A    between atoms: _36  and  _38
REMARK   16  A    between atoms: _38  and  _39
REMARK   17  A    between atoms: _38  and  _41
REMARK   18  A    between atoms: _41  and  _42
REMARK   19  A    between atoms: _45  and  _47
REMARK   20  A    between atoms: _47  and  _48
REMARK   21  A    between atoms: _47  and  _50
REMARK   22  A    between atoms: _50  and  _51
REMARK   23  A    between atoms: _54  and  _56
REMARK   24  A    between atoms: _56  and  _57
REMARK   25  A    between atoms: _59  and  _61
REMARK   26  A    between atoms: _61  and  _62
REMARK   27  A    between atoms: _65  and  _67
REMARK   28  A    between atoms: _67  and  _68
REMARK   29  A    between atoms: _67  and  _70
REMARK   30  A    between atoms: _70  and  _71
REMARK   31  A    between atoms: _74  and  _76
REMARK   32  A    between atoms: _76  and  _77
REMARK   33  A    between atoms: _76  and  _79
REMARK   34  A    between atoms: _79  and  _80
REMARK   35  A    between atoms: _83  and  _85
REMARK   36  A    between atoms: _85  and  _86
REMARK   37  A    between atoms: _85  and  _88
REMARK   38  A    between atoms: _88  and  _89
REMARK   39  A    between atoms: _92  and  _94
REMARK   40  A    between atoms: _94  and  _95
REMARK   41  A    between atoms: _94  and  _97
REMARK   42  A    between atoms: _100  and  _102
REMARK   43  A    between atoms: _102  and  _103
REMARK   44  A    between atoms: _102  and  _105
REMARK   45  A    between atoms: _105  and  _106
REMARK   46  A    between atoms: _106  and  _107
REMARK   47  A    between atoms: _107  and  _108
REMARK   48  A    between atoms: _108  and  _109
REMARK   49  A    between atoms: _113  and  _115
REMARK   50  A    between atoms: _115  and  _116
REMARK   51  A    between atoms: _115  and  _118
REMARK   52  A    between atoms: _118  and  _119
REMARK   53  A    between atoms: _119  and  _120
REMARK   54  A    between atoms: _122  and  _124
REMARK   55  A    between atoms: _124  and  _125
REMARK   56  A    between atoms: _124  and  _127
REMARK   57  A    between atoms: _127  and  _128
REMARK   58  A    between atoms: _131  and  _133
REMARK   59  A    between atoms: _133  and  _134
REMARK   60  A    between atoms: _136  and  _138
REMARK   61  A    between atoms: _138  and  _139
REMARK   62  A    between atoms: _141  and  _143
REMARK   63  A    between atoms: _143  and  _144
REMARK   64  A    between atoms: _143  and  _146
REMARK   65  A    between atoms: _144  and  _145
REMARK   66  A    between atoms: _144  and  _150
REMARK   67  A    between atoms: _146  and  _147
REMARK   68  A    between atoms: _150  and  _152
REMARK   69  A    between atoms: _152  and  _153
REMARK   70  A    between atoms: _155  and  _157
REMARK   71  A    between atoms: _157  and  _158
REMARK   72  A    between atoms: _160  and  _162
REMARK   73  A    between atoms: _162  and  _163
REMARK   74  A    between atoms: _162  and  _165
REMARK   75  A    between atoms: _165  and  _166
REMARK   76  A    between atoms: _172  and  _174
REMARK   77  A    between atoms: _174  and  _175
REMARK   78  A    between atoms: _174  and  _177
REMARK   79  A    between atoms: _177  and  _178
REMARK   80  A    between atoms: _181  and  _183
REMARK   81  A    between atoms: _183  and  _184
REMARK   82  A    between atoms: _183  and  _186
REMARK   83  A    between atoms: _186  and  _187
REMARK   84  A    between atoms: _190  and  _192
REMARK   85  A    between atoms: _192  and  _193
REMARK   86  A    between atoms: _192  and  _195
REMARK   87  A    between atoms: _195  and  _196
REMARK   88  A    between atoms: _200  and  _201
REMARK   89  A    between atoms: _206  and  _208
REMARK   90  A    between atoms: _208  and  _209
REMARK   91  A    between atoms: _208  and  _211
REMARK   92  A    between atoms: _214  and  _216
REMARK   93  A    between atoms: _216  and  _217
REMARK   94  A    between atoms: _216  and  _219
REMARK   95  A    between atoms: _219  and  _220
REMARK   96  A    between atoms: _225  and  _227
REMARK   97  A    between atoms: _227  and  _228
REMARK   98  A    between atoms: _227  and  _230
REMARK   99  A    between atoms: _230  and  _231
REMARK  100  A    between atoms: _234  and  _236
REMARK  101  A    between atoms: _236  and  _237
REMARK  102  A    between atoms: _239  and  _241
REMARK  103  A    between atoms: _241  and  _242
REMARK  104  A    between atoms: _241  and  _244
REMARK  105  A    between atoms: _244  and  _245
REMARK  106  A    between atoms: _245  and  _246
REMARK  107  A    between atoms: _246  and  _247
REMARK  108  A    between atoms: _256  and  _258
REMARK  109  A    between atoms: _258  and  _259
REMARK  110  A    between atoms: _258  and  _261
REMARK  111  A    between atoms: _261  and  _262
REMARK  112  A    between atoms: _267  and  _269
REMARK  113  A    between atoms: _269  and  _270
REMARK  114  A    between atoms: _269  and  _272
REMARK  115  A    between atoms: _272  and  _273
REMARK  116  A    between atoms: _273  and  _274
REMARK  117  A    between atoms: _274  and  _275
REMARK  118  A    between atoms: _284  and  _286
REMARK  119  A    between atoms: _286  and  _287
REMARK  120  A    between atoms: _286  and  _289
REMARK  121  A    between atoms: _289  and  _290
REMARK  122  A    between atoms: _293  and  _295
REMARK  123  A    between atoms: _295  and  _296
REMARK  124  A    between atoms: _295  and  _298
REMARK  125  A    between atoms: _298  and  _299
REMARK  126  A    between atoms: _302  and  _304
REMARK  127  A    between atoms: _304  and  _305
REMARK  128  A    between atoms: _304  and  _307
REMARK  129  A    between atoms: _307  and  _308
REMARK  130  A    between atoms: _311  and  _313
REMARK  131  A    between atoms: _313  and  _314
REMARK  132  A    between atoms: _313  and  _316
REMARK  133  A    between atoms: _316  and  _317
REMARK  134  A    between atoms: _320  and  _322
REMARK  135  A    between atoms: _322  and  _323
REMARK  136  A    between atoms: _325  and  _327
REMARK  137  A    between atoms: _327  and  _328
REMARK  138  A    between atoms: _331  and  _333
REMARK  139  A    between atoms: _333  and  _334
REMARK  140  A    between atoms: _333  and  _336
REMARK  141  A    between atoms: _336  and  _337
REMARK  142  A    between atoms: _340  and  _342
REMARK  143  A    between atoms: _342  and  _343
REMARK  144  A    between atoms: _342  and  _345
REMARK  145  A    between atoms: _345  and  _346
REMARK  146  A    between atoms: _349  and  _351
REMARK  147  A    between atoms: _351  and  _352
REMARK  148  A    between atoms: _351  and  _354
REMARK  149  A    between atoms: _354  and  _355
REMARK  150  A    between atoms: _358  and  _360
REMARK  151  A    between atoms: _360  and  _361
REMARK  152  A    between atoms: _360  and  _363
REMARK  153  A    between atoms: _366  and  _368
REMARK  154  A    between atoms: _368  and  _369
REMARK  155  A    between atoms: _368  and  _371
REMARK  156  A    between atoms: _371  and  _372
REMARK  157  A    between atoms: _372  and  _373
REMARK  158  A    between atoms: _373  and  _374
REMARK  159  A    between atoms: _374  and  _375
REMARK  160  A    between atoms: _379  and  _381
REMARK  161  A    between atoms: _381  and  _382
REMARK  162  A    between atoms: _381  and  _384
REMARK  163  A    between atoms: _384  and  _385
REMARK  164  A    between atoms: _385  and  _386
REMARK  165  A    between atoms: _388  and  _390
REMARK  166  A    between atoms: _390  and  _391
REMARK  167  A    between atoms: _390  and  _393
REMARK  168  A    between atoms: _393  and  _394
REMARK  169  A    between atoms: _397  and  _399
REMARK  170  A    between atoms: _399  and  _400
REMARK  171  A    between atoms: _402  and  _404
REMARK  172  A    between atoms: _404  and  _405
REMARK  173  A    between atoms: _407  and  _409
REMARK  174  A    between atoms: _409  and  _410
REMARK  175  A    between atoms: _409  and  _412
REMARK  176  A    between atoms: _412  and  _413
REMARK  177  A    between atoms: _416  and  _418
REMARK  178  A    between atoms: _418  and  _419
REMARK  179  A    between atoms: _421  and  _423
REMARK  180  A    between atoms: _423  and  _424
REMARK  181  A    between atoms: _426  and  _428
REMARK  182  A    between atoms: _428  and  _429
REMARK  183  A    between atoms: _428  and  _431
REMARK  184  A    between atoms: _431  and  _432
REMARK  185  A    between atoms: _438  and  _440
REMARK  186  A    between atoms: _440  and  _441
REMARK  187  A    between atoms: _440  and  _443
REMARK  188  A    between atoms: _443  and  _444
REMARK  189  A    between atoms: _447  and  _449
REMARK  190  A    between atoms: _449  and  _450
REMARK  191  A    between atoms: _449  and  _452
REMARK  192  A    between atoms: _455  and  _457
REMARK  193  A    between atoms: _457  and  _458
REMARK  194  A    between atoms: _457  and  _460
REMARK  195  A    between atoms: _460  and  _461
REMARK  196  A    between atoms: _465  and  _466
REMARK  197  A    between atoms: _471  and  _473
REMARK  198  A    between atoms: _473  and  _474
REMARK  199  A    between atoms: _473  and  _476
REMARK  200  A    between atoms: _476  and  _477
REMARK  201  A    between atoms: _481  and  _482
REMARK  202  A    between atoms: _487  and  _489
REMARK  203  A    between atoms: _489  and  _490
REMARK  204  A    between atoms: _489  and  _492
REMARK  205  A    between atoms: _495  and  _497
REMARK  206  A    between atoms: _497  and  _498
REMARK  207  A    between atoms: _497  and  _500
REMARK  208  A    between atoms: _500  and  _501
REMARK  209  A    between atoms: _506  and  _508
REMARK  210  A    between atoms: _508  and  _509
REMARK  211  A    between atoms: _508  and  _511
REMARK  212  A    between atoms: _511  and  _512
REMARK  213  A    between atoms: _515  and  _517
REMARK  214  A    between atoms: _517  and  _518
REMARK  215  A    between atoms: _517  and  _520
REMARK  216  A    between atoms: _520  and  _521
REMARK  217  A    between atoms: _524  and  _526
REMARK  218  A    between atoms: _526  and  _527
REMARK  219  A    between atoms: _529  and  _531
REMARK  220  A    between atoms: _531  and  _532
REMARK  221  A    between atoms: _531  and  _534
REMARK  222  A    between atoms: _534  and  _535
REMARK  223  A    between atoms: _535  and  _536
REMARK  224  A    between atoms: _536  and  _537
REMARK  225  A    between atoms: _546  and  _548
REMARK  226  A    between atoms: _548  and  _549
REMARK  227  A    between atoms: _548  and  _551
REMARK  228  A    between atoms: _551  and  _552
REMARK                            x       y       z     vdW  Elec       q    Type
REMARK                         _______ _______ _______ _____ _____    ______ ____
ROOT
ATOM      1  O   HOH     1       8.670  22.290  16.314  0.00  0.00    +0.000 OA
ENDROOT
TORSDOF 0
REMARK  Name = ../refined-set-2016/3ok9/3ok9_pocket.pdb
REMARK  228 active torsions:
REMARK  status: ('A' for Active; 'I' for Inactive)
REMARK    1  A    between atoms: _1  and  _3
REMARK    2  A    between atoms: _3  and  _4
REMARK    3  A    between atoms: _3  and  _6
REMARK    4  A    between atoms: _6  and  _7
REMARK    5  A    between atoms: _7  and  _8
REMARK    6  A    between atoms: _8  and  _9
REMARK    7  A    between atoms: _18  and  _20
REMARK    8  A    between atoms: _20  and  _21
REMARK    9  A    between atoms: _20  and  _23
REMARK   10  A    between atoms: _23  and  _24
REMARK   11  A    between atoms: _27  and  _29
REMARK   12  A    between atoms: _29  and  _30
REMARK   13  A    between atoms: _29  and  _32
REMARK   14  A    between atoms: _32  and  _33
REMARK   15  A    between atoms: _36  and  _38
REMARK   16  A    between atoms: _38  and  _39
REMARK   17  A    between atoms: _38  and  _41
REMARK   18  A    between atoms: _41  and  _42
REMARK   19  A    between atoms: _45  and  _47
REMARK   20  A    between atoms: _47  and  _48
REMARK   21  A    between atoms: _47  and  _50
REMARK   22  A    between atoms: _50  and  _51
REMARK   23  A    between atoms: _54  and  _56
REMARK   24  A    between atoms: _56  and  _57
REMARK   25  A    between atoms: _59  and  _61
REMARK   26  A    between atoms: _61  and  _62
REMARK   27  A    between atoms: _65  and  _67
REMARK   28  A    between atoms: _67  and  _68
REMARK   29  A    between atoms: _67  and  _70
REMARK   30  A    between atoms: _70  and  _71
REMARK   31  A    between atoms: _74  and  _76
REMARK   32  A    between atoms: _76  and  _77
REMARK   33  A    between atoms: _76  and  _79
REMARK   34  A    between atoms: _79  and  _80
REMARK   35  A    between atoms: _83  and  _85
REMARK   36  A    between atoms: _85  and  _86
REMARK   37  A    between atoms: _85  and  _88
REMARK   38  A    between atoms: _88  and  _89
REMARK   39  A    between atoms: _92  and  _94
REMARK   40  A    between atoms: _94  and  _95
REMARK   41  A    between atoms: _94  and  _97
REMARK   42  A    between atoms: _100  and  _102
REMARK   43  A    between atoms: _102  and  _103
REMARK   44  A    between atoms: _102  and  _105
REMARK   45  A    between atoms: _105  and  _106
REMARK   46  A    between atoms: _106  and  _107
REMARK   47  A    between atoms: _107  and  _108
REMARK   48  A    between atoms: _108  and  _109
REMARK   49  A    between atoms: _113  and  _115
REMARK   50  A    between atoms: _115  and  _116
REMARK   51  A    between atoms: _115  and  _118
REMARK   52  A    between atoms: _118  and  _119
REMARK   53  A    between atoms: _119  and  _120
REMARK   54  A    between atoms: _122  and  _124
REMARK   55  A    between atoms: _124  and  _125
REMARK   56  A    between atoms: _124  and  _127
REMARK   57  A    between atoms: _127  and  _128
REMARK   58  A    between atoms: _131  and  _133
REMARK   59  A    between atoms: _133  and  _134
REMARK   60  A    between atoms: _136  and  _138
REMARK   61  A    between atoms: _138  and  _139
REMARK   62  A    between atoms: _141  and  _143
REMARK   63  A    between atoms: _143  and  _144
REMARK   64  A    between atoms: _143  and  _146
REMARK   65  A    between atoms: _144  and  _145
REMARK   66  A    between atoms: _144  and  _150
REMARK   67  A    between atoms: _146  and  _147
REMARK   68  A    between atoms: _150  and  _152
REMARK   69  A    between atoms: _152  and  _153
REMARK   70  A    between atoms: _155  and  _157
REMARK   71  A    between atoms: _157  and  _158
REMARK   72  A    between atoms: _160  and  _162
REMARK   73  A    between atoms: _162  and  _163
REMARK   74  A    between atoms: _162  and  _165
REMARK   75  A    between atoms: _165  and  _166
REMARK   76  A    between atoms: _172  and  _174
REMARK   77  A    between atoms: _174  and  _175
REMARK   78  A    between atoms: _174  and  _177
REMARK   79  A    between atoms: _177  and  _178
REMARK   80  A    between atoms: _181  and  _183
REMARK   81  A    between atoms: _183  and  _184
REMARK   82  A    between atoms: _183  and  _186
REMARK   83  A    between atoms: _186  and  _187
REMARK   84  A    between atoms: _190  and  _192
REMARK   85  A    between atoms: _192  and  _193
REMARK   86  A    between atoms: _192  and  _195
REMARK   87  A    between atoms: _195  and  _196
REMARK   88  A    between atoms: _200  and  _201
REMARK   89  A    between atoms: _206  and  _208
REMARK   90  A    between atoms: _208  and  _209
REMARK   91  A    between atoms: _208  and  _211
REMARK   92  A    between atoms: _214  and  _216
REMARK   93  A    between atoms: _216  and  _217
REMARK   94  A    between atoms: _216  and  _219
REMARK   95  A    between atoms: _219  and  _220
REMARK   96  A    between atoms: _225  and  _227
REMARK   97  A    between atoms: _227  and  _228
REMARK   98  A    between atoms: _227  and  _230
REMARK   99  A    between atoms: _230  and  _231
REMARK  100  A    between atoms: _234  and  _236
REMARK  101  A    between atoms: _236  and  _237
REMARK  102  A    between atoms: _239  and  _241
REMARK  103  A    between atoms: _241  and  _242
REMARK  104  A    between atoms: _241  and  _244
REMARK  105  A    between atoms: _244  and  _245
REMARK  106  A    between atoms: _245  and  _246
REMARK  107  A    between atoms: _246  and  _247
REMARK  108  A    between atoms: _256  and  _258
REMARK  109  A    between atoms: _258  and  _259
REMARK  110  A    between atoms: _258  and  _261
REMARK  111  A    between atoms: _261  and  _262
REMARK  112  A    between atoms: _267  and  _269
REMARK  113  A    between atoms: _269  and  _270
REMARK  114  A    between atoms: _269  and  _272
REMARK  115  A    between atoms: _272  and  _273
REMARK  116  A    between atoms: _273  and  _274
REMARK  117  A    between atoms: _274  and  _275
REMARK  118  A    between atoms: _284  and  _286
REMARK  119  A    between atoms: _286  and  _287
REMARK  120  A    between atoms: _286  and  _289
REMARK  121  A    between atoms: _289  and  _290
REMARK  122  A    between atoms: _293  and  _295
REMARK  123  A    between atoms: _295  and  _296
REMARK  124  A    between atoms: _295  and  _298
REMARK  125  A    between atoms: _298  and  _299
REMARK  126  A    between atoms: _302  and  _304
REMARK  127  A    between atoms: _304  and  _305
REMARK  128  A    between atoms: _304  and  _307
REMARK  129  A    between atoms: _307  and  _308
REMARK  130  A    between atoms: _311  and  _313
REMARK  131  A    between atoms: _313  and  _314
REMARK  132  A    between atoms: _313  and  _316
REMARK  133  A    between atoms: _316  and  _317
REMARK  134  A    between atoms: _320  and  _322
REMARK  135  A    between atoms: _322  and  _323
REMARK  136  A    between atoms: _325  and  _327
REMARK  137  A    between atoms: _327  and  _328
REMARK  138  A    between atoms: _331  and  _333
REMARK  139  A    between atoms: _333  and  _334
REMARK  140  A    between atoms: _333  and  _336
REMARK  141  A    between atoms: _336  and  _337
REMARK  142  A    between atoms: _340  and  _342
REMARK  143  A    between atoms: _342  and  _343
REMARK  144  A    between atoms: _342  and  _345
REMARK  145  A    between atoms: _345  and  _346
REMARK  146  A    between atoms: _349  and  _351
REMARK  147  A    between atoms: _351  and  _352
REMARK  148  A    between atoms: _351  and  _354
REMARK  149  A    between atoms: _354  and  _355
REMARK  150  A    between atoms: _358  and  _360
REMARK  151  A    between atoms: _360  and  _361
REMARK  152  A    between atoms: _360  and  _363
REMARK  153  A    between atoms: _366  and  _368
REMARK  154  A    between atoms: _368  and  _369
REMARK  155  A    between atoms: _368  and  _371
REMARK  156  A    between atoms: _371  and  _372
REMARK  157  A    between atoms: _372  and  _373
REMARK  158  A    between atoms: _373  and  _374
REMARK  159  A    between atoms: _374  and  _375
REMARK  160  A    between atoms: _379  and  _381
REMARK  161  A    between atoms: _381  and  _382
REMARK  162  A    between atoms: _381  and  _384
REMARK  163  A    between atoms: _384  and  _385
REMARK  164  A    between atoms: _385  and  _386
REMARK  165  A    between atoms: _388  and  _390
REMARK  166  A    between atoms: _390  and  _391
REMARK  167  A    between atoms: _390  and  _393
REMARK  168  A    between atoms: _393  and  _394
REMARK  169  A    between atoms: _397  and  _399
REMARK  170  A    between atoms: _399  and  _400
REMARK  171  A    between atoms: _402  and  _404
REMARK  172  A    between atoms: _404  and  _405
REMARK  173  A    between atoms: _407  and  _409
REMARK  174  A    between atoms: _409  and  _410
REMARK  175  A    between atoms: _409  and  _412
REMARK  176  A    between atoms: _412  and  _413
REMARK  177  A    between atoms: _416  and  _418
REMARK  178  A    between atoms: _418  and  _419
REMARK  179  A    between atoms: _421  and  _423
REMARK  180  A    between atoms: _423  and  _424
REMARK  181  A    between atoms: _426  and  _428
REMARK  182  A    between atoms: _428  and  _429
REMARK  183  A    between atoms: _428  and  _431
REMARK  184  A    between atoms: _431  and  _432
REMARK  185  A    between atoms: _438  and  _440
REMARK  186  A    between atoms: _440  and  _441
REMARK  187  A    between atoms: _440  and  _443
REMARK  188  A    between atoms: _443  and  _444
REMARK  189  A    between atoms: _447  and  _449
REMARK  190  A    between atoms: _449  and  _450
REMARK  191  A    between atoms: _449  and  _452
REMARK  192  A    between atoms: _455  and  _457
REMARK  193  A    between atoms: _457  and  _458
REMARK  194  A    between atoms: _457  and  _460
REMARK  195  A    between atoms: _460  and  _461
REMARK  196  A    between atoms: _465  and  _466
REMARK  197  A    between atoms: _471  and  _473
REMARK  198  A    between atoms: _473  and  _474
REMARK  199  A    between atoms: _473  and  _476
REMARK  200  A    between atoms: _476  and  _477
REMARK  201  A    between atoms: _481  and  _482
REMARK  202  A    between atoms: _487  and  _489
REMARK  203  A    between atoms: _489  and  _490
REMARK  204  A    between atoms: _489  and  _492
REMARK  205  A    between atoms: _495  and  _497
REMARK  206  A    between atoms: _497  and  _498
REMARK  207  A    between atoms: _497  and  _500
REMARK  208  A    between atoms: _500  and  _501
REMARK  209  A    between atoms: _506  and  _508
REMARK  210  A    between atoms: _508  and  _509
REMARK  211  A    between atoms: _508  and  _511
REMARK  212  A    between atoms: _511  and  _512
REMARK  213  A    between atoms: _515  and  _517
REMARK  214  A    between atoms: _517  and  _518
REMARK  215  A    between atoms: _517  and  _520
REMARK  216  A    between atoms: _520  and  _521
REMARK  217  A    between atoms: _524  and  _526
REMARK  218  A    between atoms: _526  and  _527
REMARK  219  A    between atoms: _529  and  _531
REMARK  220  A    between atoms: _531  and  _532
REMARK  221  A    between atoms: _531  and  _534
REMARK  222  A    between atoms: _534  and  _535
REMARK  223  A    between atoms: _535  and  _536
REMARK  224  A    between atoms: _536  and  _537
REMARK  225  A    between atoms: _546  and  _548
REMARK  226  A    between atoms: _548  and  _549
REMARK  227  A    between atoms: _548  and  _551
REMARK  228  A    between atoms: _551  and  _552
REMARK                            x       y       z     vdW  Elec       q    Type
REMARK                         _______ _______ _______ _____ _____    ______ ____
ROOT
ATOM      1  O   HOH     1       7.314  24.028  17.995  0.00  0.00    +0.000 OA
ENDROOT
TORSDOF 0
REMARK  Name = ../refined-set-2016/3ok9/3ok9_pocket.pdb
REMARK  228 active torsions:
REMARK  status: ('A' for Active; 'I' for Inactive)
REMARK    1  A    between atoms: _1  and  _3
REMARK    2  A    between atoms: _3  and  _4
REMARK    3  A    between atoms: _3  and  _6
REMARK    4  A    between atoms: _6  and  _7
REMARK    5  A    between atoms: _7  and  _8
REMARK    6  A    between atoms: _8  and  _9
REMARK    7  A    between atoms: _18  and  _20
REMARK    8  A    between atoms: _20  and  _21
REMARK    9  A    between atoms: _20  and  _23
REMARK   10  A    between atoms: _23  and  _24
REMARK   11  A    between atoms: _27  and  _29
REMARK   12  A    between atoms: _29  and  _30
REMARK   13  A    between atoms: _29  and  _32
REMARK   14  A    between atoms: _32  and  _33
REMARK   15  A    between atoms: _36  and  _38
REMARK   16  A    between atoms: _38  and  _39
REMARK   17  A    between atoms: _38  and  _41
REMARK   18  A    between atoms: _41  and  _42
REMARK   19  A    between atoms: _45  and  _47
REMARK   20  A    between atoms: _47  and  _48
REMARK   21  A    between atoms: _47  and  _50
REMARK   22  A    between atoms: _50  and  _51
REMARK   23  A    between atoms: _54  and  _56
REMARK   24  A    between atoms: _56  and  _57
REMARK   25  A    between atoms: _59  and  _61
REMARK   26  A    between atoms: _61  and  _62
REMARK   27  A    between atoms: _65  and  _67
REMARK   28  A    between atoms: _67  and  _68
REMARK   29  A    between atoms: _67  and  _70
REMARK   30  A    between atoms: _70  and  _71
REMARK   31  A    between atoms: _74  and  _76
REMARK   32  A    between atoms: _76  and  _77
REMARK   33  A    between atoms: _76  and  _79
REMARK   34  A    between atoms: _79  and  _80
REMARK   35  A    between atoms: _83  and  _85
REMARK   36  A    between atoms: _85  and  _86
REMARK   37  A    between atoms: _85  and  _88
REMARK   38  A    between atoms: _88  and  _89
REMARK   39  A    between atoms: _92  and  _94
REMARK   40  A    between atoms: _94  and  _95
REMARK   41  A    between atoms: _94  and  _97
REMARK   42  A    between atoms: _100  and  _102
REMARK   43  A    between atoms: _102  and  _103
REMARK   44  A    between atoms: _102  and  _105
REMARK   45  A    between atoms: _105  and  _106
REMARK   46  A    between atoms: _106  and  _107
REMARK   47  A    between atoms: _107  and  _108
REMARK   48  A    between atoms: _108  and  _109
REMARK   49  A    between atoms: _113  and  _115
REMARK   50  A    between atoms: _115  and  _116
REMARK   51  A    between atoms: _115  and  _118
REMARK   52  A    between atoms: _118  and  _119
REMARK   53  A    between atoms: _119  and  _120
REMARK   54  A    between atoms: _122  and  _124
REMARK   55  A    between atoms: _124  and  _125
REMARK   56  A    between atoms: _124  and  _127
REMARK   57  A    between atoms: _127  and  _128
REMARK   58  A    between atoms: _131  and  _133
REMARK   59  A    between atoms: _133  and  _134
REMARK   60  A    between atoms: _136  and  _138
REMARK   61  A    between atoms: _138  and  _139
REMARK   62  A    between atoms: _141  and  _143
REMARK   63  A    between atoms: _143  and  _144
REMARK   64  A    between atoms: _143  and  _146
REMARK   65  A    between atoms: _144  and  _145
REMARK   66  A    between atoms: _144  and  _150
REMARK   67  A    between atoms: _146  and  _147
REMARK   68  A    between atoms: _150  and  _152
REMARK   69  A    between atoms: _152  and  _153
REMARK   70  A    between atoms: _155  and  _157
REMARK   71  A    between atoms: _157  and  _158
REMARK   72  A    between atoms: _160  and  _162
REMARK   73  A    between atoms: _162  and  _163
REMARK   74  A    between atoms: _162  and  _165
REMARK   75  A    between atoms: _165  and  _166
REMARK   76  A    between atoms: _172  and  _174
REMARK   77  A    between atoms: _174  and  _175
REMARK   78  A    between atoms: _174  and  _177
REMARK   79  A    between atoms: _177  and  _178
REMARK   80  A    between atoms: _181  and  _183
REMARK   81  A    between atoms: _183  and  _184
REMARK   82  A    between atoms: _183  and  _186
REMARK   83  A    between atoms: _186  and  _187
REMARK   84  A    between atoms: _190  and  _192
REMARK   85  A    between atoms: _192  and  _193
REMARK   86  A    between atoms: _192  and  _195
REMARK   87  A    between atoms: _195  and  _196
REMARK   88  A    between atoms: _200  and  _201
REMARK   89  A    between atoms: _206  and  _208
REMARK   90  A    between atoms: _208  and  _209
REMARK   91  A    between atoms: _208  and  _211
REMARK   92  A    between atoms: _214  and  _216
REMARK   93  A    between atoms: _216  and  _217
REMARK   94  A    between atoms: _216  and  _219
REMARK   95  A    between atoms: _219  and  _220
REMARK   96  A    between atoms: _225  and  _227
REMARK   97  A    between atoms: _227  and  _228
REMARK   98  A    between atoms: _227  and  _230
REMARK   99  A    between atoms: _230  and  _231
REMARK  100  A    between atoms: _234  and  _236
REMARK  101  A    between atoms: _236  and  _237
REMARK  102  A    between atoms: _239  and  _241
REMARK  103  A    between atoms: _241  and  _242
REMARK  104  A    between atoms: _241  and  _244
REMARK  105  A    between atoms: _244  and  _245
REMARK  106  A    between atoms: _245  and  _246
REMARK  107  A    between atoms: _246  and  _247
REMARK  108  A    between atoms: _256  and  _258
REMARK  109  A    between atoms: _258  and  _259
REMARK  110  A    between atoms: _258  and  _261
REMARK  111  A    between atoms: _261  and  _262
REMARK  112  A    between atoms: _267  and  _269
REMARK  113  A    between atoms: _269  and  _270
REMARK  114  A    between atoms: _269  and  _272
REMARK  115  A    between atoms: _272  and  _273
REMARK  116  A    between atoms: _273  and  _274
REMARK  117  A    between atoms: _274  and  _275
REMARK  118  A    between atoms: _284  and  _286
REMARK  119  A    between atoms: _286  and  _287
REMARK  120  A    between atoms: _286  and  _289
REMARK  121  A    between atoms: _289  and  _290
REMARK  122  A    between atoms: _293  and  _295
REMARK  123  A    between atoms: _295  and  _296
REMARK  124  A    between atoms: _295  and  _298
REMARK  125  A    between atoms: _298  and  _299
REMARK  126  A    between atoms: _302  and  _304
REMARK  127  A    between atoms: _304  and  _305
REMARK  128  A    between atoms: _304  and  _307
REMARK  129  A    between atoms: _307  and  _308
REMARK  130  A    between atoms: _311  and  _313
REMARK  131  A    between atoms: _313  and  _314
REMARK  132  A    between atoms: _313  and  _316
REMARK  133  A    between atoms: _316  and  _317
REMARK  134  A    between atoms: _320  and  _322
REMARK  135  A    between atoms: _322  and  _323
REMARK  136  A    between atoms: _325  and  _327
REMARK  137  A    between atoms: _327  and  _328
REMARK  138  A    between atoms: _331  and  _333
REMARK  139  A    between atoms: _333  and  _334
REMARK  140  A    between atoms: _333  and  _336
REMARK  141  A    between atoms: _336  and  _337
REMARK  142  A    between atoms: _340  and  _342
REMARK  143  A    between atoms: _342  and  _343
REMARK  144  A    between atoms: _342  and  _345
REMARK  145  A    between atoms: _345  and  _346
REMARK  146  A    between atoms: _349  and  _351
REMARK  147  A    between atoms: _351  and  _352
REMARK  148  A    between atoms: _351  and  _354
REMARK  149  A    between atoms: _354  and  _355
REMARK  150  A    between atoms: _358  and  _360
REMARK  151  A    between atoms: _360  and  _361
REMARK  152  A    between atoms: _360  and  _363
REMARK  153  A    between atoms: _366  and  _368
REMARK  154  A    between atoms: _368  and  _369
REMARK  155  A    between atoms: _368  and  _371
REMARK  156  A    between atoms: _371  and  _372
REMARK  157  A    between atoms: _372  and  _373
REMARK  158  A    between atoms: _373  and  _374
REMARK  159  A    between atoms: _374  and  _375
REMARK  160  A    between atoms: _379  and  _381
REMARK  161  A    between atoms: _381  and  _382
REMARK  162  A    between atoms: _381  and  _384
REMARK  163  A    between atoms: _384  and  _385
REMARK  164  A    between atoms: _385  and  _386
REMARK  165  A    between atoms: _388  and  _390
REMARK  166  A    between atoms: _390  and  _391
REMARK  167  A    between atoms: _390  and  _393
REMARK  168  A    between atoms: _393  and  _394
REMARK  169  A    between atoms: _397  and  _399
REMARK  170  A    between atoms: _399  and  _400
REMARK  171  A    between atoms: _402  and  _404
REMARK  172  A    between atoms: _404  and  _405
REMARK  173  A    between atoms: _407  and  _409
REMARK  174  A    between atoms: _409  and  _410
REMARK  175  A    between atoms: _409  and  _412
REMARK  176  A    between atoms: _412  and  _413
REMARK  177  A    between atoms: _416  and  _418
REMARK  178  A    between atoms: _418  and  _419
REMARK  179  A    between atoms: _421  and  _423
REMARK  180  A    between atoms: _423  and  _424
REMARK  181  A    between atoms: _426  and  _428
REMARK  182  A    between atoms: _428  and  _429
REMARK  183  A    between atoms: _428  and  _431
REMARK  184  A    between atoms: _431  and  _432
REMARK  185  A    between atoms: _438  and  _440
REMARK  186  A    between atoms: _440  and  _441
REMARK  187  A    between atoms: _440  and  _443
REMARK  188  A    between atoms: _443  and  _444
REMARK  189  A    between atoms: _447  and  _449
REMARK  190  A    between atoms: _449  and  _450
REMARK  191  A    between atoms: _449  and  _452
REMARK  192  A    between atoms: _455  and  _457
REMARK  193  A    between atoms: _457  and  _458
REMARK  194  A    between atoms: _457  and  _460
REMARK  195  A    between atoms: _460  and  _461
REMARK  196  A    between atoms: _465  and  _466
REMARK  197  A    between atoms: _471  and  _473
REMARK  198  A    between atoms: _473  and  _474
REMARK  199  A    between atoms: _473  and  _476
REMARK  200  A    between atoms: _476  and  _477
REMARK  201  A    between atoms: _481  and  _482
REMARK  202  A    between atoms: _487  and  _489
REMARK  203  A    between atoms: _489  and  _490
REMARK  204  A    between atoms: _489  and  _492
REMARK  205  A    between atoms: _495  and  _497
REMARK  206  A    between atoms: _497  and  _498
REMARK  207  A    between atoms: _497  and  _500
REMARK  208  A    between atoms: _500  and  _501
REMARK  209  A    between atoms: _506  and  _508
REMARK  210  A    between atoms: _508  and  _509
REMARK  211  A    between atoms: _508  and  _511
REMARK  212  A    between atoms: _511  and  _512
REMARK  213  A    between atoms: _515  and  _517
REMARK  214  A    between atoms: _517  and  _518
REMARK  215  A    between atoms: _517  and  _520
REMARK  216  A    between atoms: _520  and  _521
REMARK  217  A    between atoms: _524  and  _526
REMARK  218  A    between atoms: _526  and  _527
REMARK  219  A    between atoms: _529  and  _531
REMARK  220  A    between atoms: _531  and  _532
REMARK  221  A    between atoms: _531  and  _534
REMARK  222  A    between atoms: _534  and  _535
REMARK  223  A    between atoms: _535  and  _536
REMARK  224  A    between atoms: _536  and  _537
REMARK  225  A    between atoms: _546  and  _548
REMARK  226  A    between atoms: _548  and  _549
REMARK  227  A    between atoms: _548  and  _551
REMARK  228  A    between atoms: _551  and  _552
REMARK                            x       y       z     vdW  Elec       q    Type
REMARK                         _______ _______ _______ _____ _____    ______ ____
ROOT
ATOM      1  O   HOH     1       9.278  16.099  26.353  0.00  0.00    +0.000 OA
ENDROOT
TORSDOF 0
REMARK  Name = ../refined-set-2016/3ok9/3ok9_pocket.pdb
REMARK  228 active torsions:
REMARK  status: ('A' for Active; 'I' for Inactive)
REMARK    1  A    between atoms: _1  and  _3
REMARK    2  A    between atoms: _3  and  _4
REMARK    3  A    between atoms: _3  and  _6
REMARK    4  A    between atoms: _6  and  _7
REMARK    5  A    between atoms: _7  and  _8
REMARK    6  A    between atoms: _8  and  _9
REMARK    7  A    between atoms: _18  and  _20
REMARK    8  A    between atoms: _20  and  _21
REMARK    9  A    between atoms: _20  and  _23
REMARK   10  A    between atoms: _23  and  _24
REMARK   11  A    between atoms: _27  and  _29
REMARK   12  A    between atoms: _29  and  _30
REMARK   13  A    between atoms: _29  and  _32
REMARK   14  A    between atoms: _32  and  _33
REMARK   15  A    between atoms: _36  and  _38
REMARK   16  A    between atoms: _38  and  _39
REMARK   17  A    between atoms: _38  and  _41
REMARK   18  A    between atoms: _41  and  _42
REMARK   19  A    between atoms: _45  and  _47
REMARK   20  A    between atoms: _47  and  _48
REMARK   21  A    between atoms: _47  and  _50
REMARK   22  A    between atoms: _50  and  _51
REMARK   23  A    between atoms: _54  and  _56
REMARK   24  A    between atoms: _56  and  _57
REMARK   25  A    between atoms: _59  and  _61
REMARK   26  A    between atoms: _61  and  _62
REMARK   27  A    between atoms: _65  and  _67
REMARK   28  A    between atoms: _67  and  _68
REMARK   29  A    between atoms: _67  and  _70
REMARK   30  A    between atoms: _70  and  _71
REMARK   31  A    between atoms: _74  and  _76
REMARK   32  A    between atoms: _76  and  _77
REMARK   33  A    between atoms: _76  and  _79
REMARK   34  A    between atoms: _79  and  _80
REMARK   35  A    between atoms: _83  and  _85
REMARK   36  A    between atoms: _85  and  _86
REMARK   37  A    between atoms: _85  and  _88
REMARK   38  A    between atoms: _88  and  _89
REMARK   39  A    between atoms: _92  and  _94
REMARK   40  A    between atoms: _94  and  _95
REMARK   41  A    between atoms: _94  and  _97
REMARK   42  A    between atoms: _100  and  _102
REMARK   43  A    between atoms: _102  and  _103
REMARK   44  A    between atoms: _102  and  _105
REMARK   45  A    between atoms: _105  and  _106
REMARK   46  A    between atoms: _106  and  _107
REMARK   47  A    between atoms: _107  and  _108
REMARK   48  A    between atoms: _108  and  _109
REMARK   49  A    between atoms: _113  and  _115
REMARK   50  A    between atoms: _115  and  _116
REMARK   51  A    between atoms: _115  and  _118
REMARK   52  A    between atoms: _118  and  _119
REMARK   53  A    between atoms: _119  and  _120
REMARK   54  A    between atoms: _122  and  _124
REMARK   55  A    between atoms: _124  and  _125
REMARK   56  A    between atoms: _124  and  _127
REMARK   57  A    between atoms: _127  and  _128
REMARK   58  A    between atoms: _131  and  _133
REMARK   59  A    between atoms: _133  and  _134
REMARK   60  A    between atoms: _136  and  _138
REMARK   61  A    between atoms: _138  and  _139
REMARK   62  A    between atoms: _141  and  _143
REMARK   63  A    between atoms: _143  and  _144
REMARK   64  A    between atoms: _143  and  _146
REMARK   65  A    between atoms: _144  and  _145
REMARK   66  A    between atoms: _144  and  _150
REMARK   67  A    between atoms: _146  and  _147
REMARK   68  A    between atoms: _150  and  _152
REMARK   69  A    between atoms: _152  and  _153
REMARK   70  A    between atoms: _155  and  _157
REMARK   71  A    between atoms: _157  and  _158
REMARK   72  A    between atoms: _160  and  _162
REMARK   73  A    between atoms: _162  and  _163
REMARK   74  A    between atoms: _162  and  _165
REMARK   75  A    between atoms: _165  and  _166
REMARK   76  A    between atoms: _172  and  _174
REMARK   77  A    between atoms: _174  and  _175
REMARK   78  A    between atoms: _174  and  _177
REMARK   79  A    between atoms: _177  and  _178
REMARK   80  A    between atoms: _181  and  _183
REMARK   81  A    between atoms: _183  and  _184
REMARK   82  A    between atoms: _183  and  _186
REMARK   83  A    between atoms: _186  and  _187
REMARK   84  A    between atoms: _190  and  _192
REMARK   85  A    between atoms: _192  and  _193
REMARK   86  A    between atoms: _192  and  _195
REMARK   87  A    between atoms: _195  and  _196
REMARK   88  A    between atoms: _200  and  _201
REMARK   89  A    between atoms: _206  and  _208
REMARK   90  A    between atoms: _208  and  _209
REMARK   91  A    between atoms: _208  and  _211
REMARK   92  A    between atoms: _214  and  _216
REMARK   93  A    between atoms: _216  and  _217
REMARK   94  A    between atoms: _216  and  _219
REMARK   95  A    between atoms: _219  and  _220
REMARK   96  A    between atoms: _225  and  _227
REMARK   97  A    between atoms: _227  and  _228
REMARK   98  A    between atoms: _227  and  _230
REMARK   99  A    between atoms: _230  and  _231
REMARK  100  A    between atoms: _234  and  _236
REMARK  101  A    between atoms: _236  and  _237
REMARK  102  A    between atoms: _239  and  _241
REMARK  103  A    between atoms: _241  and  _242
REMARK  104  A    between atoms: _241  and  _244
REMARK  105  A    between atoms: _244  and  _245
REMARK  106  A    between atoms: _245  and  _246
REMARK  107  A    between atoms: _246  and  _247
REMARK  108  A    between atoms: _256  and  _258
REMARK  109  A    between atoms: _258  and  _259
REMARK  110  A    between atoms: _258  and  _261
REMARK  111  A    between atoms: _261  and  _262
REMARK  112  A    between atoms: _267  and  _269
REMARK  113  A    between atoms: _269  and  _270
REMARK  114  A    between atoms: _269  and  _272
REMARK  115  A    between atoms: _272  and  _273
REMARK  116  A    between atoms: _273  and  _274
REMARK  117  A    between atoms: _274  and  _275
REMARK  118  A    between atoms: _284  and  _286
REMARK  119  A    between atoms: _286  and  _287
REMARK  120  A    between atoms: _286  and  _289
REMARK  121  A    between atoms: _289  and  _290
REMARK  122  A    between atoms: _293  and  _295
REMARK  123  A    between atoms: _295  and  _296
REMARK  124  A    between atoms: _295  and  _298
REMARK  125  A    between atoms: _298  and  _299
REMARK  126  A    between atoms: _302  and  _304
REMARK  127  A    between atoms: _304  and  _305
REMARK  128  A    between atoms: _304  and  _307
REMARK  129  A    between atoms: _307  and  _308
REMARK  130  A    between atoms: _311  and  _313
REMARK  131  A    between atoms: _313  and  _314
REMARK  132  A    between atoms: _313  and  _316
REMARK  133  A    between atoms: _316  and  _317
REMARK  134  A    between atoms: _320  and  _322
REMARK  135  A    between atoms: _322  and  _323
REMARK  136  A    between atoms: _325  and  _327
REMARK  137  A    between atoms: _327  and  _328
REMARK  138  A    between atoms: _331  and  _333
REMARK  139  A    between atoms: _333  and  _334
REMARK  140  A    between atoms: _333  and  _336
REMARK  141  A    between atoms: _336  and  _337
REMARK  142  A    between atoms: _340  and  _342
REMARK  143  A    between atoms: _342  and  _343
REMARK  144  A    between atoms: _342  and  _345
REMARK  145  A    between atoms: _345  and  _346
REMARK  146  A    between atoms: _349  and  _351
REMARK  147  A    between atoms: _351  and  _352
REMARK  148  A    between atoms: _351  and  _354
REMARK  149  A    between atoms: _354  and  _355
REMARK  150  A    between atoms: _358  and  _360
REMARK  151  A    between atoms: _360  and  _361
REMARK  152  A    between atoms: _360  and  _363
REMARK  153  A    between atoms: _366  and  _368
REMARK  154  A    between atoms: _368  and  _369
REMARK  155  A    between atoms: _368  and  _371
REMARK  156  A    between atoms: _371  and  _372
REMARK  157  A    between atoms: _372  and  _373
REMARK  158  A    between atoms: _373  and  _374
REMARK  159  A    between atoms: _374  and  _375
REMARK  160  A    between atoms: _379  and  _381
REMARK  161  A    between atoms: _381  and  _382
REMARK  162  A    between atoms: _381  and  _384
REMARK  163  A    between atoms: _384  and  _385
REMARK  164  A    between atoms: _385  and  _386
REMARK  165  A    between atoms: _388  and  _390
REMARK  166  A    between atoms: _390  and  _391
REMARK  167  A    between atoms: _390  and  _393
REMARK  168  A    between atoms: _393  and  _394
REMARK  169  A    between atoms: _397  and  _399
REMARK  170  A    between atoms: _399  and  _400
REMARK  171  A    between atoms: _402  and  _404
REMARK  172  A    between atoms: _404  and  _405
REMARK  173  A    between atoms: _407  and  _409
REMARK  174  A    between atoms: _409  and  _410
REMARK  175  A    between atoms: _409  and  _412
REMARK  176  A    between atoms: _412  and  _413
REMARK  177  A    between atoms: _416  and  _418
REMARK  178  A    between atoms: _418  and  _419
REMARK  179  A    between atoms: _421  and  _423
REMARK  180  A    between atoms: _423  and  _424
REMARK  181  A    between atoms: _426  and  _428
REMARK  182  A    between atoms: _428  and  _429
REMARK  183  A    between atoms: _428  and  _431
REMARK  184  A    between atoms: _431  and  _432
REMARK  185  A    between atoms: _438  and  _440
REMARK  186  A    between atoms: _440  and  _441
REMARK  187  A    between atoms: _440  and  _443
REMARK  188  A    between atoms: _443  and  _444
REMARK  189  A    between atoms: _447  and  _449
REMARK  190  A    between atoms: _449  and  _450
REMARK  191  A    between atoms: _449  and  _452
REMARK  192  A    between atoms: _455  and  _457
REMARK  193  A    between atoms: _457  and  _458
REMARK  194  A    between atoms: _457  and  _460
REMARK  195  A    between atoms: _460  and  _461
REMARK  196  A    between atoms: _465  and  _466
REMARK  197  A    between atoms: _471  and  _473
REMARK  198  A    between atoms: _473  and  _474
REMARK  199  A    between atoms: _473  and  _476
REMARK  200  A    between atoms: _476  and  _477
REMARK  201  A    between atoms: _481  and  _482
REMARK  202  A    between atoms: _487  and  _489
REMARK  203  A    between atoms: _489  and  _490
REMARK  204  A    between atoms: _489  and  _492
REMARK  205  A    between atoms: _495  and  _497
REMARK  206  A    between atoms: _497  and  _498
REMARK  207  A    between atoms: _497  and  _500
REMARK  208  A    between atoms: _500  and  _501
REMARK  209  A    between atoms: _506  and  _508
REMARK  210  A    between atoms: _508  and  _509
REMARK  211  A    between atoms: _508  and  _511
REMARK  212  A    between atoms: _511  and  _512
REMARK  213  A    between atoms: _515  and  _517
REMARK  214  A    between atoms: _517  and  _518
REMARK  215  A    between atoms: _517  and  _520
REMARK  216  A    between atoms: _520  and  _521
REMARK  217  A    between atoms: _524  and  _526
REMARK  218  A    between atoms: _526  and  _527
REMARK  219  A    between atoms: _529  and  _531
REMARK  220  A    between atoms: _531  and  _532
REMARK  221  A    between atoms: _531  and  _534
REMARK  222  A    between atoms: _534  and  _535
REMARK  223  A    between atoms: _535  and  _536
REMARK  224  A    between atoms: _536  and  _537
REMARK  225  A    between atoms: _546  and  _548
REMARK  226  A    between atoms: _548  and  _549
REMARK  227  A    between atoms: _548  and  _551
REMARK  228  A    between atoms: _551  and  _552
REMARK                            x       y       z     vdW  Elec       q    Type
REMARK                         _______ _______ _______ _____ _____    ______ ____
ROOT
ATOM      1  O   HOH     1      10.871  14.885  16.301  0.00  0.00    +0.000 OA
ENDROOT
TORSDOF 0
REMARK  Name = ../refined-set-2016/3ok9/3ok9_pocket.pdb
REMARK  228 active torsions:
REMARK  status: ('A' for Active; 'I' for Inactive)
REMARK    1  A    between atoms: _1  and  _3
REMARK    2  A    between atoms: _3  and  _4
REMARK    3  A    between atoms: _3  and  _6
REMARK    4  A    between atoms: _6  and  _7
REMARK    5  A    between atoms: _7  and  _8
REMARK    6  A    between atoms: _8  and  _9
REMARK    7  A    between atoms: _18  and  _20
REMARK    8  A    between atoms: _20  and  _21
REMARK    9  A    between atoms: _20  and  _23
REMARK   10  A    between atoms: _23  and  _24
REMARK   11  A    between atoms: _27  and  _29
REMARK   12  A    between atoms: _29  and  _30
REMARK   13  A    between atoms: _29  and  _32
REMARK   14  A    between atoms: _32  and  _33
REMARK   15  A    between atoms: _36  and  _38
REMARK   16  A    between atoms: _38  and  _39
REMARK   17  A    between atoms: _38  and  _41
REMARK   18  A    between atoms: _41  and  _42
REMARK   19  A    between atoms: _45  and  _47
REMARK   20  A    between atoms: _47  and  _48
REMARK   21  A    between atoms: _47  and  _50
REMARK   22  A    between atoms: _50  and  _51
REMARK   23  A    between atoms: _54  and  _56
REMARK   24  A    between atoms: _56  and  _57
REMARK   25  A    between atoms: _59  and  _61
REMARK   26  A    between atoms: _61  and  _62
REMARK   27  A    between atoms: _65  and  _67
REMARK   28  A    between atoms: _67  and  _68
REMARK   29  A    between atoms: _67  and  _70
REMARK   30  A    between atoms: _70  and  _71
REMARK   31  A    between atoms: _74  and  _76
REMARK   32  A    between atoms: _76  and  _77
REMARK   33  A    between atoms: _76  and  _79
REMARK   34  A    between atoms: _79  and  _80
REMARK   35  A    between atoms: _83  and  _85
REMARK   36  A    between atoms: _85  and  _86
REMARK   37  A    between atoms: _85  and  _88
REMARK   38  A    between atoms: _88  and  _89
REMARK   39  A    between atoms: _92  and  _94
REMARK   40  A    between atoms: _94  and  _95
REMARK   41  A    between atoms: _94  and  _97
REMARK   42  A    between atoms: _100  and  _102
REMARK   43  A    between atoms: _102  and  _103
REMARK   44  A    between atoms: _102  and  _105
REMARK   45  A    between atoms: _105  and  _106
REMARK   46  A    between atoms: _106  and  _107
REMARK   47  A    between atoms: _107  and  _108
REMARK   48  A    between atoms: _108  and  _109
REMARK   49  A    between atoms: _113  and  _115
REMARK   50  A    between atoms: _115  and  _116
REMARK   51  A    between atoms: _115  and  _118
REMARK   52  A    between atoms: _118  and  _119
REMARK   53  A    between atoms: _119  and  _120
REMARK   54  A    between atoms: _122  and  _124
REMARK   55  A    between atoms: _124  and  _125
REMARK   56  A    between atoms: _124  and  _127
REMARK   57  A    between atoms: _127  and  _128
REMARK   58  A    between atoms: _131  and  _133
REMARK   59  A    between atoms: _133  and  _134
REMARK   60  A    between atoms: _136  and  _138
REMARK   61  A    between atoms: _138  and  _139
REMARK   62  A    between atoms: _141  and  _143
REMARK   63  A    between atoms: _143  and  _144
REMARK   64  A    between atoms: _143  and  _146
REMARK   65  A    between atoms: _144  and  _145
REMARK   66  A    between atoms: _144  and  _150
REMARK   67  A    between atoms: _146  and  _147
REMARK   68  A    between atoms: _150  and  _152
REMARK   69  A    between atoms: _152  and  _153
REMARK   70  A    between atoms: _155  and  _157
REMARK   71  A    between atoms: _157  and  _158
REMARK   72  A    between atoms: _160  and  _162
REMARK   73  A    between atoms: _162  and  _163
REMARK   74  A    between atoms: _162  and  _165
REMARK   75  A    between atoms: _165  and  _166
REMARK   76  A    between atoms: _172  and  _174
REMARK   77  A    between atoms: _174  and  _175
REMARK   78  A    between atoms: _174  and  _177
REMARK   79  A    between atoms: _177  and  _178
REMARK   80  A    between atoms: _181  and  _183
REMARK   81  A    between atoms: _183  and  _184
REMARK   82  A    between atoms: _183  and  _186
REMARK   83  A    between atoms: _186  and  _187
REMARK   84  A    between atoms: _190  and  _192
REMARK   85  A    between atoms: _192  and  _193
REMARK   86  A    between atoms: _192  and  _195
REMARK   87  A    between atoms: _195  and  _196
REMARK   88  A    between atoms: _200  and  _201
REMARK   89  A    between atoms: _206  and  _208
REMARK   90  A    between atoms: _208  and  _209
REMARK   91  A    between atoms: _208  and  _211
REMARK   92  A    between atoms: _214  and  _216
REMARK   93  A    between atoms: _216  and  _217
REMARK   94  A    between atoms: _216  and  _219
REMARK   95  A    between atoms: _219  and  _220
REMARK   96  A    between atoms: _225  and  _227
REMARK   97  A    between atoms: _227  and  _228
REMARK   98  A    between atoms: _227  and  _230
REMARK   99  A    between atoms: _230  and  _231
REMARK  100  A    between atoms: _234  and  _236
REMARK  101  A    between atoms: _236  and  _237
REMARK  102  A    between atoms: _239  and  _241
REMARK  103  A    between atoms: _241  and  _242
REMARK  104  A    between atoms: _241  and  _244
REMARK  105  A    between atoms: _244  and  _245
REMARK  106  A    between atoms: _245  and  _246
REMARK  107  A    between atoms: _246  and  _247
REMARK  108  A    between atoms: _256  and  _258
REMARK  109  A    between atoms: _258  and  _259
REMARK  110  A    between atoms: _258  and  _261
REMARK  111  A    between atoms: _261  and  _262
REMARK  112  A    between atoms: _267  and  _269
REMARK  113  A    between atoms: _269  and  _270
REMARK  114  A    between atoms: _269  and  _272
REMARK  115  A    between atoms: _272  and  _273
REMARK  116  A    between atoms: _273  and  _274
REMARK  117  A    between atoms: _274  and  _275
REMARK  118  A    between atoms: _284  and  _286
REMARK  119  A    between atoms: _286  and  _287
REMARK  120  A    between atoms: _286  and  _289
REMARK  121  A    between atoms: _289  and  _290
REMARK  122  A    between atoms: _293  and  _295
REMARK  123  A    between atoms: _295  and  _296
REMARK  124  A    between atoms: _295  and  _298
REMARK  125  A    between atoms: _298  and  _299
REMARK  126  A    between atoms: _302  and  _304
REMARK  127  A    between atoms: _304  and  _305
REMARK  128  A    between atoms: _304  and  _307
REMARK  129  A    between atoms: _307  and  _308
REMARK  130  A    between atoms: _311  and  _313
REMARK  131  A    between atoms: _313  and  _314
REMARK  132  A    between atoms: _313  and  _316
REMARK  133  A    between atoms: _316  and  _317
REMARK  134  A    between atoms: _320  and  _322
REMARK  135  A    between atoms: _322  and  _323
REMARK  136  A    between atoms: _325  and  _327
REMARK  137  A    between atoms: _327  and  _328
REMARK  138  A    between atoms: _331  and  _333
REMARK  139  A    between atoms: _333  and  _334
REMARK  140  A    between atoms: _333  and  _336
REMARK  141  A    between atoms: _336  and  _337
REMARK  142  A    between atoms: _340  and  _342
REMARK  143  A    between atoms: _342  and  _343
REMARK  144  A    between atoms: _342  and  _345
REMARK  145  A    between atoms: _345  and  _346
REMARK  146  A    between atoms: _349  and  _351
REMARK  147  A    between atoms: _351  and  _352
REMARK  148  A    between atoms: _351  and  _354
REMARK  149  A    between atoms: _354  and  _355
REMARK  150  A    between atoms: _358  and  _360
REMARK  151  A    between atoms: _360  and  _361
REMARK  152  A    between atoms: _360  and  _363
REMARK  153  A    between atoms: _366  and  _368
REMARK  154  A    between atoms: _368  and  _369
REMARK  155  A    between atoms: _368  and  _371
REMARK  156  A    between atoms: _371  and  _372
REMARK  157  A    between atoms: _372  and  _373
REMARK  158  A    between atoms: _373  and  _374
REMARK  159  A    between atoms: _374  and  _375
REMARK  160  A    between atoms: _379  and  _381
REMARK  161  A    between atoms: _381  and  _382
REMARK  162  A    between atoms: _381  and  _384
REMARK  163  A    between atoms: _384  and  _385
REMARK  164  A    between atoms: _385  and  _386
REMARK  165  A    between atoms: _388  and  _390
REMARK  166  A    between atoms: _390  and  _391
REMARK  167  A    between atoms: _390  and  _393
REMARK  168  A    between atoms: _393  and  _394
REMARK  169  A    between atoms: _397  and  _399
REMARK  170  A    between atoms: _399  and  _400
REMARK  171  A    between atoms: _402  and  _404
REMARK  172  A    between atoms: _404  and  _405
REMARK  173  A    between atoms: _407  and  _409
REMARK  174  A    between atoms: _409  and  _410
REMARK  175  A    between atoms: _409  and  _412
REMARK  176  A    between atoms: _412  and  _413
REMARK  177  A    between atoms: _416  and  _418
REMARK  178  A    between atoms: _418  and  _419
REMARK  179  A    between atoms: _421  and  _423
REMARK  180  A    between atoms: _423  and  _424
REMARK  181  A    between atoms: _426  and  _428
REMARK  182  A    between atoms: _428  and  _429
REMARK  183  A    between atoms: _428  and  _431
REMARK  184  A    between atoms: _431  and  _432
REMARK  185  A    between atoms: _438  and  _440
REMARK  186  A    between atoms: _440  and  _441
REMARK  187  A    between atoms: _440  and  _443
REMARK  188  A    between atoms: _443  and  _444
REMARK  189  A    between atoms: _447  and  _449
REMARK  190  A    between atoms: _449  and  _450
REMARK  191  A    between atoms: _449  and  _452
REMARK  192  A    between atoms: _455  and  _457
REMARK  193  A    between atoms: _457  and  _458
REMARK  194  A    between atoms: _457  and  _460
REMARK  195  A    between atoms: _460  and  _461
REMARK  196  A    between atoms: _465  and  _466
REMARK  197  A    between atoms: _471  and  _473
REMARK  198  A    between atoms: _473  and  _474
REMARK  199  A    between atoms: _473  and  _476
REMARK  200  A    between atoms: _476  and  _477
REMARK  201  A    between atoms: _481  and  _482
REMARK  202  A    between atoms: _487  and  _489
REMARK  203  A    between atoms: _489  and  _490
REMARK  204  A    between atoms: _489  and  _492
REMARK  205  A    between atoms: _495  and  _497
REMARK  206  A    between atoms: _497  and  _498
REMARK  207  A    between atoms: _497  and  _500
REMARK  208  A    between atoms: _500  and  _501
REMARK  209  A    between atoms: _506  and  _508
REMARK  210  A    between atoms: _508  and  _509
REMARK  211  A    between atoms: _508  and  _511
REMARK  212  A    between atoms: _511  and  _512
REMARK  213  A    between atoms: _515  and  _517
REMARK  214  A    between atoms: _517  and  _518
REMARK  215  A    between atoms: _517  and  _520
REMARK  216  A    between atoms: _520  and  _521
REMARK  217  A    between atoms: _524  and  _526
REMARK  218  A    between atoms: _526  and  _527
REMARK  219  A    between atoms: _529  and  _531
REMARK  220  A    between atoms: _531  and  _532
REMARK  221  A    between atoms: _531  and  _534
REMARK  222  A    between atoms: _534  and  _535
REMARK  223  A    between atoms: _535  and  _536
REMARK  224  A    between atoms: _536  and  _537
REMARK  225  A    between atoms: _546  and  _548
REMARK  226  A    between atoms: _548  and  _549
REMARK  227  A    between atoms: _548  and  _551
REMARK  228  A    between atoms: _551  and  _552
REMARK                            x       y       z     vdW  Elec       q    Type
REMARK                         _______ _______ _______ _____ _____    ______ ____
ROOT
ATOM      1  O   HOH     1      22.103  27.211  22.545  0.00  0.00    +0.000 OA
ENDROOT
TORSDOF 0
REMARK  Name = ../refined-set-2016/3ok9/3ok9_pocket.pdb
REMARK  228 active torsions:
REMARK  status: ('A' for Active; 'I' for Inactive)
REMARK    1  A    between atoms: _1  and  _3
REMARK    2  A    between atoms: _3  and  _4
REMARK    3  A    between atoms: _3  and  _6
REMARK    4  A    between atoms: _6  and  _7
REMARK    5  A    between atoms: _7  and  _8
REMARK    6  A    between atoms: _8  and  _9
REMARK    7  A    between atoms: _18  and  _20
REMARK    8  A    between atoms: _20  and  _21
REMARK    9  A    between atoms: _20  and  _23
REMARK   10  A    between atoms: _23  and  _24
REMARK   11  A    between atoms: _27  and  _29
REMARK   12  A    between atoms: _29  and  _30
REMARK   13  A    between atoms: _29  and  _32
REMARK   14  A    between atoms: _32  and  _33
REMARK   15  A    between atoms: _36  and  _38
REMARK   16  A    between atoms: _38  and  _39
REMARK   17  A    between atoms: _38  and  _41
REMARK   18  A    between atoms: _41  and  _42
REMARK   19  A    between atoms: _45  and  _47
REMARK   20  A    between atoms: _47  and  _48
REMARK   21  A    between atoms: _47  and  _50
REMARK   22  A    between atoms: _50  and  _51
REMARK   23  A    between atoms: _54  and  _56
REMARK   24  A    between atoms: _56  and  _57
REMARK   25  A    between atoms: _59  and  _61
REMARK   26  A    between atoms: _61  and  _62
REMARK   27  A    between atoms: _65  and  _67
REMARK   28  A    between atoms: _67  and  _68
REMARK   29  A    between atoms: _67  and  _70
REMARK   30  A    between atoms: _70  and  _71
REMARK   31  A    between atoms: _74  and  _76
REMARK   32  A    between atoms: _76  and  _77
REMARK   33  A    between atoms: _76  and  _79
REMARK   34  A    between atoms: _79  and  _80
REMARK   35  A    between atoms: _83  and  _85
REMARK   36  A    between atoms: _85  and  _86
REMARK   37  A    between atoms: _85  and  _88
REMARK   38  A    between atoms: _88  and  _89
REMARK   39  A    between atoms: _92  and  _94
REMARK   40  A    between atoms: _94  and  _95
REMARK   41  A    between atoms: _94  and  _97
REMARK   42  A    between atoms: _100  and  _102
REMARK   43  A    between atoms: _102  and  _103
REMARK   44  A    between atoms: _102  and  _105
REMARK   45  A    between atoms: _105  and  _106
REMARK   46  A    between atoms: _106  and  _107
REMARK   47  A    between atoms: _107  and  _108
REMARK   48  A    between atoms: _108  and  _109
REMARK   49  A    between atoms: _113  and  _115
REMARK   50  A    between atoms: _115  and  _116
REMARK   51  A    between atoms: _115  and  _118
REMARK   52  A    between atoms: _118  and  _119
REMARK   53  A    between atoms: _119  and  _120
REMARK   54  A    between atoms: _122  and  _124
REMARK   55  A    between atoms: _124  and  _125
REMARK   56  A    between atoms: _124  and  _127
REMARK   57  A    between atoms: _127  and  _128
REMARK   58  A    between atoms: _131  and  _133
REMARK   59  A    between atoms: _133  and  _134
REMARK   60  A    between atoms: _136  and  _138
REMARK   61  A    between atoms: _138  and  _139
REMARK   62  A    between atoms: _141  and  _143
REMARK   63  A    between atoms: _143  and  _144
REMARK   64  A    between atoms: _143  and  _146
REMARK   65  A    between atoms: _144  and  _145
REMARK   66  A    between atoms: _144  and  _150
REMARK   67  A    between atoms: _146  and  _147
REMARK   68  A    between atoms: _150  and  _152
REMARK   69  A    between atoms: _152  and  _153
REMARK   70  A    between atoms: _155  and  _157
REMARK   71  A    between atoms: _157  and  _158
REMARK   72  A    between atoms: _160  and  _162
REMARK   73  A    between atoms: _162  and  _163
REMARK   74  A    between atoms: _162  and  _165
REMARK   75  A    between atoms: _165  and  _166
REMARK   76  A    between atoms: _172  and  _174
REMARK   77  A    between atoms: _174  and  _175
REMARK   78  A    between atoms: _174  and  _177
REMARK   79  A    between atoms: _177  and  _178
REMARK   80  A    between atoms: _181  and  _183
REMARK   81  A    between atoms: _183  and  _184
REMARK   82  A    between atoms: _183  and  _186
REMARK   83  A    between atoms: _186  and  _187
REMARK   84  A    between atoms: _190  and  _192
REMARK   85  A    between atoms: _192  and  _193
REMARK   86  A    between atoms: _192  and  _195
REMARK   87  A    between atoms: _195  and  _196
REMARK   88  A    between atoms: _200  and  _201
REMARK   89  A    between atoms: _206  and  _208
REMARK   90  A    between atoms: _208  and  _209
REMARK   91  A    between atoms: _208  and  _211
REMARK   92  A    between atoms: _214  and  _216
REMARK   93  A    between atoms: _216  and  _217
REMARK   94  A    between atoms: _216  and  _219
REMARK   95  A    between atoms: _219  and  _220
REMARK   96  A    between atoms: _225  and  _227
REMARK   97  A    between atoms: _227  and  _228
REMARK   98  A    between atoms: _227  and  _230
REMARK   99  A    between atoms: _230  and  _231
REMARK  100  A    between atoms: _234  and  _236
REMARK  101  A    between atoms: _236  and  _237
REMARK  102  A    between atoms: _239  and  _241
REMARK  103  A    between atoms: _241  and  _242
REMARK  104  A    between atoms: _241  and  _244
REMARK  105  A    between atoms: _244  and  _245
REMARK  106  A    between atoms: _245  and  _246
REMARK  107  A    between atoms: _246  and  _247
REMARK  108  A    between atoms: _256  and  _258
REMARK  109  A    between atoms: _258  and  _259
REMARK  110  A    between atoms: _258  and  _261
REMARK  111  A    between atoms: _261  and  _262
REMARK  112  A    between atoms: _267  and  _269
REMARK  113  A    between atoms: _269  and  _270
REMARK  114  A    between atoms: _269  and  _272
REMARK  115  A    between atoms: _272  and  _273
REMARK  116  A    between atoms: _273  and  _274
REMARK  117  A    between atoms: _274  and  _275
REMARK  118  A    between atoms: _284  and  _286
REMARK  119  A    between atoms: _286  and  _287
REMARK  120  A    between atoms: _286  and  _289
REMARK  121  A    between atoms: _289  and  _290
REMARK  122  A    between atoms: _293  and  _295
REMARK  123  A    between atoms: _295  and  _296
REMARK  124  A    between atoms: _295  and  _298
REMARK  125  A    between atoms: _298  and  _299
REMARK  126  A    between atoms: _302  and  _304
REMARK  127  A    between atoms: _304  and  _305
REMARK  128  A    between atoms: _304  and  _307
REMARK  129  A    between atoms: _307  and  _308
REMARK  130  A    between atoms: _311  and  _313
REMARK  131  A    between atoms: _313  and  _314
REMARK  132  A    between atoms: _313  and  _316
REMARK  133  A    between atoms: _316  and  _317
REMARK  134  A    between atoms: _320  and  _322
REMARK  135  A    between atoms: _322  and  _323
REMARK  136  A    between atoms: _325  and  _327
REMARK  137  A    between atoms: _327  and  _328
REMARK  138  A    between atoms: _331  and  _333
REMARK  139  A    between atoms: _333  and  _334
REMARK  140  A    between atoms: _333  and  _336
REMARK  141  A    between atoms: _336  and  _337
REMARK  142  A    between atoms: _340  and  _342
REMARK  143  A    between atoms: _342  and  _343
REMARK  144  A    between atoms: _342  and  _345
REMARK  145  A    between atoms: _345  and  _346
REMARK  146  A    between atoms: _349  and  _351
REMARK  147  A    between atoms: _351  and  _352
REMARK  148  A    between atoms: _351  and  _354
REMARK  149  A    between atoms: _354  and  _355
REMARK  150  A    between atoms: _358  and  _360
REMARK  151  A    between atoms: _360  and  _361
REMARK  152  A    between atoms: _360  and  _363
REMARK  153  A    between atoms: _366  and  _368
REMARK  154  A    between atoms: _368  and  _369
REMARK  155  A    between atoms: _368  and  _371
REMARK  156  A    between atoms: _371  and  _372
REMARK  157  A    between atoms: _372  and  _373
REMARK  158  A    between atoms: _373  and  _374
REMARK  159  A    between atoms: _374  and  _375
REMARK  160  A    between atoms: _379  and  _381
REMARK  161  A    between atoms: _381  and  _382
REMARK  162  A    between atoms: _381  and  _384
REMARK  163  A    between atoms: _384  and  _385
REMARK  164  A    between atoms: _385  and  _386
REMARK  165  A    between atoms: _388  and  _390
REMARK  166  A    between atoms: _390  and  _391
REMARK  167  A    between atoms: _390  and  _393
REMARK  168  A    between atoms: _393  and  _394
REMARK  169  A    between atoms: _397  and  _399
REMARK  170  A    between atoms: _399  and  _400
REMARK  171  A    between atoms: _402  and  _404
REMARK  172  A    between atoms: _404  and  _405
REMARK  173  A    between atoms: _407  and  _409
REMARK  174  A    between atoms: _409  and  _410
REMARK  175  A    between atoms: _409  and  _412
REMARK  176  A    between atoms: _412  and  _413
REMARK  177  A    between atoms: _416  and  _418
REMARK  178  A    between atoms: _418  and  _419
REMARK  179  A    between atoms: _421  and  _423
REMARK  180  A    between atoms: _423  and  _424
REMARK  181  A    between atoms: _426  and  _428
REMARK  182  A    between atoms: _428  and  _429
REMARK  183  A    between atoms: _428  and  _431
REMARK  184  A    between atoms: _431  and  _432
REMARK  185  A    between atoms: _438  and  _440
REMARK  186  A    between atoms: _440  and  _441
REMARK  187  A    between atoms: _440  and  _443
REMARK  188  A    between atoms: _443  and  _444
REMARK  189  A    between atoms: _447  and  _449
REMARK  190  A    between atoms: _449  and  _450
REMARK  191  A    between atoms: _449  and  _452
REMARK  192  A    between atoms: _455  and  _457
REMARK  193  A    between atoms: _457  and  _458
REMARK  194  A    between atoms: _457  and  _460
REMARK  195  A    between atoms: _460  and  _461
REMARK  196  A    between atoms: _465  and  _466
REMARK  197  A    between atoms: _471  and  _473
REMARK  198  A    between atoms: _473  and  _474
REMARK  199  A    between atoms: _473  and  _476
REMARK  200  A    between atoms: _476  and  _477
REMARK  201  A    between atoms: _481  and  _482
REMARK  202  A    between atoms: _487  and  _489
REMARK  203  A    between atoms: _489  and  _490
REMARK  204  A    between atoms: _489  and  _492
REMARK  205  A    between atoms: _495  and  _497
REMARK  206  A    between atoms: _497  and  _498
REMARK  207  A    between atoms: _497  and  _500
REMARK  208  A    between atoms: _500  and  _501
REMARK  209  A    between atoms: _506  and  _508
REMARK  210  A    between atoms: _508  and  _509
REMARK  211  A    between atoms: _508  and  _511
REMARK  212  A    between atoms: _511  and  _512
REMARK  213  A    between atoms: _515  and  _517
REMARK  214  A    between atoms: _517  and  _518
REMARK  215  A    between atoms: _517  and  _520
REMARK  216  A    between atoms: _520  and  _521
REMARK  217  A    between atoms: _524  and  _526
REMARK  218  A    between atoms: _526  and  _527
REMARK  219  A    between atoms: _529  and  _531
REMARK  220  A    between atoms: _531  and  _532
REMARK  221  A    between atoms: _531  and  _534
REMARK  222  A    between atoms: _534  and  _535
REMARK  223  A    between atoms: _535  and  _536
REMARK  224  A    between atoms: _536  and  _537
REMARK  225  A    between atoms: _546  and  _548
REMARK  226  A    between atoms: _548  and  _549
REMARK  227  A    between atoms: _548  and  _551
REMARK  228  A    between atoms: _551  and  _552
REMARK                            x       y       z     vdW  Elec       q    Type
REMARK                         _______ _______ _______ _____ _____    ______ ____
ROOT
ATOM      1  O   HOH     1      15.985  15.835  11.357  0.00  0.00    +0.000 OA
ENDROOT
TORSDOF 0
REMARK  Name = ../refined-set-2016/3ok9/3ok9_pocket.pdb
REMARK  228 active torsions:
REMARK  status: ('A' for Active; 'I' for Inactive)
REMARK    1  A    between atoms: _1  and  _3
REMARK    2  A    between atoms: _3  and  _4
REMARK    3  A    between atoms: _3  and  _6
REMARK    4  A    between atoms: _6  and  _7
REMARK    5  A    between atoms: _7  and  _8
REMARK    6  A    between atoms: _8  and  _9
REMARK    7  A    between atoms: _18  and  _20
REMARK    8  A    between atoms: _20  and  _21
REMARK    9  A    between atoms: _20  and  _23
REMARK   10  A    between atoms: _23  and  _24
REMARK   11  A    between atoms: _27  and  _29
REMARK   12  A    between atoms: _29  and  _30
REMARK   13  A    between atoms: _29  and  _32
REMARK   14  A    between atoms: _32  and  _33
REMARK   15  A    between atoms: _36  and  _38
REMARK   16  A    between atoms: _38  and  _39
REMARK   17  A    between atoms: _38  and  _41
REMARK   18  A    between atoms: _41  and  _42
REMARK   19  A    between atoms: _45  and  _47
REMARK   20  A    between atoms: _47  and  _48
REMARK   21  A    between atoms: _47  and  _50
REMARK   22  A    between atoms: _50  and  _51
REMARK   23  A    between atoms: _54  and  _56
REMARK   24  A    between atoms: _56  and  _57
REMARK   25  A    between atoms: _59  and  _61
REMARK   26  A    between atoms: _61  and  _62
REMARK   27  A    between atoms: _65  and  _67
REMARK   28  A    between atoms: _67  and  _68
REMARK   29  A    between atoms: _67  and  _70
REMARK   30  A    between atoms: _70  and  _71
REMARK   31  A    between atoms: _74  and  _76
REMARK   32  A    between atoms: _76  and  _77
REMARK   33  A    between atoms: _76  and  _79
REMARK   34  A    between atoms: _79  and  _80
REMARK   35  A    between atoms: _83  and  _85
REMARK   36  A    between atoms: _85  and  _86
REMARK   37  A    between atoms: _85  and  _88
REMARK   38  A    between atoms: _88  and  _89
REMARK   39  A    between atoms: _92  and  _94
REMARK   40  A    between atoms: _94  and  _95
REMARK   41  A    between atoms: _94  and  _97
REMARK   42  A    between atoms: _100  and  _102
REMARK   43  A    between atoms: _102  and  _103
REMARK   44  A    between atoms: _102  and  _105
REMARK   45  A    between atoms: _105  and  _106
REMARK   46  A    between atoms: _106  and  _107
REMARK   47  A    between atoms: _107  and  _108
REMARK   48  A    between atoms: _108  and  _109
REMARK   49  A    between atoms: _113  and  _115
REMARK   50  A    between atoms: _115  and  _116
REMARK   51  A    between atoms: _115  and  _118
REMARK   52  A    between atoms: _118  and  _119
REMARK   53  A    between atoms: _119  and  _120
REMARK   54  A    between atoms: _122  and  _124
REMARK   55  A    between atoms: _124  and  _125
REMARK   56  A    between atoms: _124  and  _127
REMARK   57  A    between atoms: _127  and  _128
REMARK   58  A    between atoms: _131  and  _133
REMARK   59  A    between atoms: _133  and  _134
REMARK   60  A    between atoms: _136  and  _138
REMARK   61  A    between atoms: _138  and  _139
REMARK   62  A    between atoms: _141  and  _143
REMARK   63  A    between atoms: _143  and  _144
REMARK   64  A    between atoms: _143  and  _146
REMARK   65  A    between atoms: _144  and  _145
REMARK   66  A    between atoms: _144  and  _150
REMARK   67  A    between atoms: _146  and  _147
REMARK   68  A    between atoms: _150  and  _152
REMARK   69  A    between atoms: _152  and  _153
REMARK   70  A    between atoms: _155  and  _157
REMARK   71  A    between atoms: _157  and  _158
REMARK   72  A    between atoms: _160  and  _162
REMARK   73  A    between atoms: _162  and  _163
REMARK   74  A    between atoms: _162  and  _165
REMARK   75  A    between atoms: _165  and  _166
REMARK   76  A    between atoms: _172  and  _174
REMARK   77  A    between atoms: _174  and  _175
REMARK   78  A    between atoms: _174  and  _177
REMARK   79  A    between atoms: _177  and  _178
REMARK   80  A    between atoms: _181  and  _183
REMARK   81  A    between atoms: _183  and  _184
REMARK   82  A    between atoms: _183  and  _186
REMARK   83  A    between atoms: _186  and  _187
REMARK   84  A    between atoms: _190  and  _192
REMARK   85  A    between atoms: _192  and  _193
REMARK   86  A    between atoms: _192  and  _195
REMARK   87  A    between atoms: _195  and  _196
REMARK   88  A    between atoms: _200  and  _201
REMARK   89  A    between atoms: _206  and  _208
REMARK   90  A    between atoms: _208  and  _209
REMARK   91  A    between atoms: _208  and  _211
REMARK   92  A    between atoms: _214  and  _216
REMARK   93  A    between atoms: _216  and  _217
REMARK   94  A    between atoms: _216  and  _219
REMARK   95  A    between atoms: _219  and  _220
REMARK   96  A    between atoms: _225  and  _227
REMARK   97  A    between atoms: _227  and  _228
REMARK   98  A    between atoms: _227  and  _230
REMARK   99  A    between atoms: _230  and  _231
REMARK  100  A    between atoms: _234  and  _236
REMARK  101  A    between atoms: _236  and  _237
REMARK  102  A    between atoms: _239  and  _241
REMARK  103  A    between atoms: _241  and  _242
REMARK  104  A    between atoms: _241  and  _244
REMARK  105  A    between atoms: _244  and  _245
REMARK  106  A    between atoms: _245  and  _246
REMARK  107  A    between atoms: _246  and  _247
REMARK  108  A    between atoms: _256  and  _258
REMARK  109  A    between atoms: _258  and  _259
REMARK  110  A    between atoms: _258  and  _261
REMARK  111  A    between atoms: _261  and  _262
REMARK  112  A    between atoms: _267  and  _269
REMARK  113  A    between atoms: _269  and  _270
REMARK  114  A    between atoms: _269  and  _272
REMARK  115  A    between atoms: _272  and  _273
REMARK  116  A    between atoms: _273  and  _274
REMARK  117  A    between atoms: _274  and  _275
REMARK  118  A    between atoms: _284  and  _286
REMARK  119  A    between atoms: _286  and  _287
REMARK  120  A    between atoms: _286  and  _289
REMARK  121  A    between atoms: _289  and  _290
REMARK  122  A    between atoms: _293  and  _295
REMARK  123  A    between atoms: _295  and  _296
REMARK  124  A    between atoms: _295  and  _298
REMARK  125  A    between atoms: _298  and  _299
REMARK  126  A    between atoms: _302  and  _304
REMARK  127  A    between atoms: _304  and  _305
REMARK  128  A    between atoms: _304  and  _307
REMARK  129  A    between atoms: _307  and  _308
REMARK  130  A    between atoms: _311  and  _313
REMARK  131  A    between atoms: _313  and  _314
REMARK  132  A    between atoms: _313  and  _316
REMARK  133  A    between atoms: _316  and  _317
REMARK  134  A    between atoms: _320  and  _322
REMARK  135  A    between atoms: _322  and  _323
REMARK  136  A    between atoms: _325  and  _327
REMARK  137  A    between atoms: _327  and  _328
REMARK  138  A    between atoms: _331  and  _333
REMARK  139  A    between atoms: _333  and  _334
REMARK  140  A    between atoms: _333  and  _336
REMARK  141  A    between atoms: _336  and  _337
REMARK  142  A    between atoms: _340  and  _342
REMARK  143  A    between atoms: _342  and  _343
REMARK  144  A    between atoms: _342  and  _345
REMARK  145  A    between atoms: _345  and  _346
REMARK  146  A    between atoms: _349  and  _351
REMARK  147  A    between atoms: _351  and  _352
REMARK  148  A    between atoms: _351  and  _354
REMARK  149  A    between atoms: _354  and  _355
REMARK  150  A    between atoms: _358  and  _360
REMARK  151  A    between atoms: _360  and  _361
REMARK  152  A    between atoms: _360  and  _363
REMARK  153  A    between atoms: _366  and  _368
REMARK  154  A    between atoms: _368  and  _369
REMARK  155  A    between atoms: _368  and  _371
REMARK  156  A    between atoms: _371  and  _372
REMARK  157  A    between atoms: _372  and  _373
REMARK  158  A    between atoms: _373  and  _374
REMARK  159  A    between atoms: _374  and  _375
REMARK  160  A    between atoms: _379  and  _381
REMARK  161  A    between atoms: _381  and  _382
REMARK  162  A    between atoms: _381  and  _384
REMARK  163  A    between atoms: _384  and  _385
REMARK  164  A    between atoms: _385  and  _386
REMARK  165  A    between atoms: _388  and  _390
REMARK  166  A    between atoms: _390  and  _391
REMARK  167  A    between atoms: _390  and  _393
REMARK  168  A    between atoms: _393  and  _394
REMARK  169  A    between atoms: _397  and  _399
REMARK  170  A    between atoms: _399  and  _400
REMARK  171  A    between atoms: _402  and  _404
REMARK  172  A    between atoms: _404  and  _405
REMARK  173  A    between atoms: _407  and  _409
REMARK  174  A    between atoms: _409  and  _410
REMARK  175  A    between atoms: _409  and  _412
REMARK  176  A    between atoms: _412  and  _413
REMARK  177  A    between atoms: _416  and  _418
REMARK  178  A    between atoms: _418  and  _419
REMARK  179  A    between atoms: _421  and  _423
REMARK  180  A    between atoms: _423  and  _424
REMARK  181  A    between atoms: _426  and  _428
REMARK  182  A    between atoms: _428  and  _429
REMARK  183  A    between atoms: _428  and  _431
REMARK  184  A    between atoms: _431  and  _432
REMARK  185  A    between atoms: _438  and  _440
REMARK  186  A    between atoms: _440  and  _441
REMARK  187  A    between atoms: _440  and  _443
REMARK  188  A    between atoms: _443  and  _444
REMARK  189  A    between atoms: _447  and  _449
REMARK  190  A    between atoms: _449  and  _450
REMARK  191  A    between atoms: _449  and  _452
REMARK  192  A    between atoms: _455  and  _457
REMARK  193  A    between atoms: _457  and  _458
REMARK  194  A    between atoms: _457  and  _460
REMARK  195  A    between atoms: _460  and  _461
REMARK  196  A    between atoms: _465  and  _466
REMARK  197  A    between atoms: _471  and  _473
REMARK  198  A    between atoms: _473  and  _474
REMARK  199  A    between atoms: _473  and  _476
REMARK  200  A    between atoms: _476  and  _477
REMARK  201  A    between atoms: _481  and  _482
REMARK  202  A    between atoms: _487  and  _489
REMARK  203  A    between atoms: _489  and  _490
REMARK  204  A    between atoms: _489  and  _492
REMARK  205  A    between atoms: _495  and  _497
REMARK  206  A    between atoms: _497  and  _498
REMARK  207  A    between atoms: _497  and  _500
REMARK  208  A    between atoms: _500  and  _501
REMARK  209  A    between atoms: _506  and  _508
REMARK  210  A    between atoms: _508  and  _509
REMARK  211  A    between atoms: _508  and  _511
REMARK  212  A    between atoms: _511  and  _512
REMARK  213  A    between atoms: _515  and  _517
REMARK  214  A    between atoms: _517  and  _518
REMARK  215  A    between atoms: _517  and  _520
REMARK  216  A    between atoms: _520  and  _521
REMARK  217  A    between atoms: _524  and  _526
REMARK  218  A    between atoms: _526  and  _527
REMARK  219  A    between atoms: _529  and  _531
REMARK  220  A    between atoms: _531  and  _532
REMARK  221  A    between atoms: _531  and  _534
REMARK  222  A    between atoms: _534  and  _535
REMARK  223  A    between atoms: _535  and  _536
REMARK  224  A    between atoms: _536  and  _537
REMARK  225  A    between atoms: _546  and  _548
REMARK  226  A    between atoms: _548  and  _549
REMARK  227  A    between atoms: _548  and  _551
REMARK  228  A    between atoms: _551  and  _552
REMARK                            x       y       z     vdW  Elec       q    Type
REMARK                         _______ _______ _______ _____ _____    ______ ____
ROOT
ATOM      1  O   HOH     1       8.743  21.627  13.481  0.00  0.00    +0.000 OA
ENDROOT
TORSDOF 0
REMARK  Name = ../refined-set-2016/3ok9/3ok9_pocket.pdb
REMARK  228 active torsions:
REMARK  status: ('A' for Active; 'I' for Inactive)
REMARK    1  A    between atoms: _1  and  _3
REMARK    2  A    between atoms: _3  and  _4
REMARK    3  A    between atoms: _3  and  _6
REMARK    4  A    between atoms: _6  and  _7
REMARK    5  A    between atoms: _7  and  _8
REMARK    6  A    between atoms: _8  and  _9
REMARK    7  A    between atoms: _18  and  _20
REMARK    8  A    between atoms: _20  and  _21
REMARK    9  A    between atoms: _20  and  _23
REMARK   10  A    between atoms: _23  and  _24
REMARK   11  A    between atoms: _27  and  _29
REMARK   12  A    between atoms: _29  and  _30
REMARK   13  A    between atoms: _29  and  _32
REMARK   14  A    between atoms: _32  and  _33
REMARK   15  A    between atoms: _36  and  _38
REMARK   16  A    between atoms: _38  and  _39
REMARK   17  A    between atoms: _38  and  _41
REMARK   18  A    between atoms: _41  and  _42
REMARK   19  A    between atoms: _45  and  _47
REMARK   20  A    between atoms: _47  and  _48
REMARK   21  A    between atoms: _47  and  _50
REMARK   22  A    between atoms: _50  and  _51
REMARK   23  A    between atoms: _54  and  _56
REMARK   24  A    between atoms: _56  and  _57
REMARK   25  A    between atoms: _59  and  _61
REMARK   26  A    between atoms: _61  and  _62
REMARK   27  A    between atoms: _65  and  _67
REMARK   28  A    between atoms: _67  and  _68
REMARK   29  A    between atoms: _67  and  _70
REMARK   30  A    between atoms: _70  and  _71
REMARK   31  A    between atoms: _74  and  _76
REMARK   32  A    between atoms: _76  and  _77
REMARK   33  A    between atoms: _76  and  _79
REMARK   34  A    between atoms: _79  and  _80
REMARK   35  A    between atoms: _83  and  _85
REMARK   36  A    between atoms: _85  and  _86
REMARK   37  A    between atoms: _85  and  _88
REMARK   38  A    between atoms: _88  and  _89
REMARK   39  A    between atoms: _92  and  _94
REMARK   40  A    between atoms: _94  and  _95
REMARK   41  A    between atoms: _94  and  _97
REMARK   42  A    between atoms: _100  and  _102
REMARK   43  A    between atoms: _102  and  _103
REMARK   44  A    between atoms: _102  and  _105
REMARK   45  A    between atoms: _105  and  _106
REMARK   46  A    between atoms: _106  and  _107
REMARK   47  A    between atoms: _107  and  _108
REMARK   48  A    between atoms: _108  and  _109
REMARK   49  A    between atoms: _113  and  _115
REMARK   50  A    between atoms: _115  and  _116
REMARK   51  A    between atoms: _115  and  _118
REMARK   52  A    between atoms: _118  and  _119
REMARK   53  A    between atoms: _119  and  _120
REMARK   54  A    between atoms: _122  and  _124
REMARK   55  A    between atoms: _124  and  _125
REMARK   56  A    between atoms: _124  and  _127
REMARK   57  A    between atoms: _127  and  _128
REMARK   58  A    between atoms: _131  and  _133
REMARK   59  A    between atoms: _133  and  _134
REMARK   60  A    between atoms: _136  and  _138
REMARK   61  A    between atoms: _138  and  _139
REMARK   62  A    between atoms: _141  and  _143
REMARK   63  A    between atoms: _143  and  _144
REMARK   64  A    between atoms: _143  and  _146
REMARK   65  A    between atoms: _144  and  _145
REMARK   66  A    between atoms: _144  and  _150
REMARK   67  A    between atoms: _146  and  _147
REMARK   68  A    between atoms: _150  and  _152
REMARK   69  A    between atoms: _152  and  _153
REMARK   70  A    between atoms: _155  and  _157
REMARK   71  A    between atoms: _157  and  _158
REMARK   72  A    between atoms: _160  and  _162
REMARK   73  A    between atoms: _162  and  _163
REMARK   74  A    between atoms: _162  and  _165
REMARK   75  A    between atoms: _165  and  _166
REMARK   76  A    between atoms: _172  and  _174
REMARK   77  A    between atoms: _174  and  _175
REMARK   78  A    between atoms: _174  and  _177
REMARK   79  A    between atoms: _177  and  _178
REMARK   80  A    between atoms: _181  and  _183
REMARK   81  A    between atoms: _183  and  _184
REMARK   82  A    between atoms: _183  and  _186
REMARK   83  A    between atoms: _186  and  _187
REMARK   84  A    between atoms: _190  and  _192
REMARK   85  A    between atoms: _192  and  _193
REMARK   86  A    between atoms: _192  and  _195
REMARK   87  A    between atoms: _195  and  _196
REMARK   88  A    between atoms: _200  and  _201
REMARK   89  A    between atoms: _206  and  _208
REMARK   90  A    between atoms: _208  and  _209
REMARK   91  A    between atoms: _208  and  _211
REMARK   92  A    between atoms: _214  and  _216
REMARK   93  A    between atoms: _216  and  _217
REMARK   94  A    between atoms: _216  and  _219
REMARK   95  A    between atoms: _219  and  _220
REMARK   96  A    between atoms: _225  and  _227
REMARK   97  A    between atoms: _227  and  _228
REMARK   98  A    between atoms: _227  and  _230
REMARK   99  A    between atoms: _230  and  _231
REMARK  100  A    between atoms: _234  and  _236
REMARK  101  A    between atoms: _236  and  _237
REMARK  102  A    between atoms: _239  and  _241
REMARK  103  A    between atoms: _241  and  _242
REMARK  104  A    between atoms: _241  and  _244
REMARK  105  A    between atoms: _244  and  _245
REMARK  106  A    between atoms: _245  and  _246
REMARK  107  A    between atoms: _246  and  _247
REMARK  108  A    between atoms: _256  and  _258
REMARK  109  A    between atoms: _258  and  _259
REMARK  110  A    between atoms: _258  and  _261
REMARK  111  A    between atoms: _261  and  _262
REMARK  112  A    between atoms: _267  and  _269
REMARK  113  A    between atoms: _269  and  _270
REMARK  114  A    between atoms: _269  and  _272
REMARK  115  A    between atoms: _272  and  _273
REMARK  116  A    between atoms: _273  and  _274
REMARK  117  A    between atoms: _274  and  _275
REMARK  118  A    between atoms: _284  and  _286
REMARK  119  A    between atoms: _286  and  _287
REMARK  120  A    between atoms: _286  and  _289
REMARK  121  A    between atoms: _289  and  _290
REMARK  122  A    between atoms: _293  and  _295
REMARK  123  A    between atoms: _295  and  _296
REMARK  124  A    between atoms: _295  and  _298
REMARK  125  A    between atoms: _298  and  _299
REMARK  126  A    between atoms: _302  and  _304
REMARK  127  A    between atoms: _304  and  _305
REMARK  128  A    between atoms: _304  and  _307
REMARK  129  A    between atoms: _307  and  _308
REMARK  130  A    between atoms: _311  and  _313
REMARK  131  A    between atoms: _313  and  _314
REMARK  132  A    between atoms: _313  and  _316
REMARK  133  A    between atoms: _316  and  _317
REMARK  134  A    between atoms: _320  and  _322
REMARK  135  A    between atoms: _322  and  _323
REMARK  136  A    between atoms: _325  and  _327
REMARK  137  A    between atoms: _327  and  _328
REMARK  138  A    between atoms: _331  and  _333
REMARK  139  A    between atoms: _333  and  _334
REMARK  140  A    between atoms: _333  and  _336
REMARK  141  A    between atoms: _336  and  _337
REMARK  142  A    between atoms: _340  and  _342
REMARK  143  A    between atoms: _342  and  _343
REMARK  144  A    between atoms: _342  and  _345
REMARK  145  A    between atoms: _345  and  _346
REMARK  146  A    between atoms: _349  and  _351
REMARK  147  A    between atoms: _351  and  _352
REMARK  148  A    between atoms: _351  and  _354
REMARK  149  A    between atoms: _354  and  _355
REMARK  150  A    between atoms: _358  and  _360
REMARK  151  A    between atoms: _360  and  _361
REMARK  152  A    between atoms: _360  and  _363
REMARK  153  A    between atoms: _366  and  _368
REMARK  154  A    between atoms: _368  and  _369
REMARK  155  A    between atoms: _368  and  _371
REMARK  156  A    between atoms: _371  and  _372
REMARK  157  A    between atoms: _372  and  _373
REMARK  158  A    between atoms: _373  and  _374
REMARK  159  A    between atoms: _374  and  _375
REMARK  160  A    between atoms: _379  and  _381
REMARK  161  A    between atoms: _381  and  _382
REMARK  162  A    between atoms: _381  and  _384
REMARK  163  A    between atoms: _384  and  _385
REMARK  164  A    between atoms: _385  and  _386
REMARK  165  A    between atoms: _388  and  _390
REMARK  166  A    between atoms: _390  and  _391
REMARK  167  A    between atoms: _390  and  _393
REMARK  168  A    between atoms: _393  and  _394
REMARK  169  A    between atoms: _397  and  _399
REMARK  170  A    between atoms: _399  and  _400
REMARK  171  A    between atoms: _402  and  _404
REMARK  172  A    between atoms: _404  and  _405
REMARK  173  A    between atoms: _407  and  _409
REMARK  174  A    between atoms: _409  and  _410
REMARK  175  A    between atoms: _409  and  _412
REMARK  176  A    between atoms: _412  and  _413
REMARK  177  A    between atoms: _416  and  _418
REMARK  178  A    between atoms: _418  and  _419
REMARK  179  A    between atoms: _421  and  _423
REMARK  180  A    between atoms: _423  and  _424
REMARK  181  A    between atoms: _426  and  _428
REMARK  182  A    between atoms: _428  and  _429
REMARK  183  A    between atoms: _428  and  _431
REMARK  184  A    between atoms: _431  and  _432
REMARK  185  A    between atoms: _438  and  _440
REMARK  186  A    between atoms: _440  and  _441
REMARK  187  A    between atoms: _440  and  _443
REMARK  188  A    between atoms: _443  and  _444
REMARK  189  A    between atoms: _447  and  _449
REMARK  190  A    between atoms: _449  and  _450
REMARK  191  A    between atoms: _449  and  _452
REMARK  192  A    between atoms: _455  and  _457
REMARK  193  A    between atoms: _457  and  _458
REMARK  194  A    between atoms: _457  and  _460
REMARK  195  A    between atoms: _460  and  _461
REMARK  196  A    between atoms: _465  and  _466
REMARK  197  A    between atoms: _471  and  _473
REMARK  198  A    between atoms: _473  and  _474
REMARK  199  A    between atoms: _473  and  _476
REMARK  200  A    between atoms: _476  and  _477
REMARK  201  A    between atoms: _481  and  _482
REMARK  202  A    between atoms: _487  and  _489
REMARK  203  A    between atoms: _489  and  _490
REMARK  204  A    between atoms: _489  and  _492
REMARK  205  A    between atoms: _495  and  _497
REMARK  206  A    between atoms: _497  and  _498
REMARK  207  A    between atoms: _497  and  _500
REMARK  208  A    between atoms: _500  and  _501
REMARK  209  A    between atoms: _506  and  _508
REMARK  210  A    between atoms: _508  and  _509
REMARK  211  A    between atoms: _508  and  _511
REMARK  212  A    between atoms: _511  and  _512
REMARK  213  A    between atoms: _515  and  _517
REMARK  214  A    between atoms: _517  and  _518
REMARK  215  A    between atoms: _517  and  _520
REMARK  216  A    between atoms: _520  and  _521
REMARK  217  A    between atoms: _524  and  _526
REMARK  218  A    between atoms: _526  and  _527
REMARK  219  A    between atoms: _529  and  _531
REMARK  220  A    between atoms: _531  and  _532
REMARK  221  A    between atoms: _531  and  _534
REMARK  222  A    between atoms: _534  and  _535
REMARK  223  A    between atoms: _535  and  _536
REMARK  224  A    between atoms: _536  and  _537
REMARK  225  A    between atoms: _546  and  _548
REMARK  226  A    between atoms: _548  and  _549
REMARK  227  A    between atoms: _548  and  _551
REMARK  228  A    between atoms: _551  and  _552
REMARK                            x       y       z     vdW  Elec       q    Type
REMARK                         _______ _______ _______ _____ _____    ______ ____
ROOT
ATOM      1  O   HOH     1       4.230  19.203  22.357  0.00  0.00    +0.000 OA
ENDROOT
TORSDOF 0
REMARK  Name = ../refined-set-2016/3ok9/3ok9_pocket.pdb
REMARK  228 active torsions:
REMARK  status: ('A' for Active; 'I' for Inactive)
REMARK    1  A    between atoms: _1  and  _3
REMARK    2  A    between atoms: _3  and  _4
REMARK    3  A    between atoms: _3  and  _6
REMARK    4  A    between atoms: _6  and  _7
REMARK    5  A    between atoms: _7  and  _8
REMARK    6  A    between atoms: _8  and  _9
REMARK    7  A    between atoms: _18  and  _20
REMARK    8  A    between atoms: _20  and  _21
REMARK    9  A    between atoms: _20  and  _23
REMARK   10  A    between atoms: _23  and  _24
REMARK   11  A    between atoms: _27  and  _29
REMARK   12  A    between atoms: _29  and  _30
REMARK   13  A    between atoms: _29  and  _32
REMARK   14  A    between atoms: _32  and  _33
REMARK   15  A    between atoms: _36  and  _38
REMARK   16  A    between atoms: _38  and  _39
REMARK   17  A    between atoms: _38  and  _41
REMARK   18  A    between atoms: _41  and  _42
REMARK   19  A    between atoms: _45  and  _47
REMARK   20  A    between atoms: _47  and  _48
REMARK   21  A    between atoms: _47  and  _50
REMARK   22  A    between atoms: _50  and  _51
REMARK   23  A    between atoms: _54  and  _56
REMARK   24  A    between atoms: _56  and  _57
REMARK   25  A    between atoms: _59  and  _61
REMARK   26  A    between atoms: _61  and  _62
REMARK   27  A    between atoms: _65  and  _67
REMARK   28  A    between atoms: _67  and  _68
REMARK   29  A    between atoms: _67  and  _70
REMARK   30  A    between atoms: _70  and  _71
REMARK   31  A    between atoms: _74  and  _76
REMARK   32  A    between atoms: _76  and  _77
REMARK   33  A    between atoms: _76  and  _79
REMARK   34  A    between atoms: _79  and  _80
REMARK   35  A    between atoms: _83  and  _85
REMARK   36  A    between atoms: _85  and  _86
REMARK   37  A    between atoms: _85  and  _88
REMARK   38  A    between atoms: _88  and  _89
REMARK   39  A    between atoms: _92  and  _94
REMARK   40  A    between atoms: _94  and  _95
REMARK   41  A    between atoms: _94  and  _97
REMARK   42  A    between atoms: _100  and  _102
REMARK   43  A    between atoms: _102  and  _103
REMARK   44  A    between atoms: _102  and  _105
REMARK   45  A    between atoms: _105  and  _106
REMARK   46  A    between atoms: _106  and  _107
REMARK   47  A    between atoms: _107  and  _108
REMARK   48  A    between atoms: _108  and  _109
REMARK   49  A    between atoms: _113  and  _115
REMARK   50  A    between atoms: _115  and  _116
REMARK   51  A    between atoms: _115  and  _118
REMARK   52  A    between atoms: _118  and  _119
REMARK   53  A    between atoms: _119  and  _120
REMARK   54  A    between atoms: _122  and  _124
REMARK   55  A    between atoms: _124  and  _125
REMARK   56  A    between atoms: _124  and  _127
REMARK   57  A    between atoms: _127  and  _128
REMARK   58  A    between atoms: _131  and  _133
REMARK   59  A    between atoms: _133  and  _134
REMARK   60  A    between atoms: _136  and  _138
REMARK   61  A    between atoms: _138  and  _139
REMARK   62  A    between atoms: _141  and  _143
REMARK   63  A    between atoms: _143  and  _144
REMARK   64  A    between atoms: _143  and  _146
REMARK   65  A    between atoms: _144  and  _145
REMARK   66  A    between atoms: _144  and  _150
REMARK   67  A    between atoms: _146  and  _147
REMARK   68  A    between atoms: _150  and  _152
REMARK   69  A    between atoms: _152  and  _153
REMARK   70  A    between atoms: _155  and  _157
REMARK   71  A    between atoms: _157  and  _158
REMARK   72  A    between atoms: _160  and  _162
REMARK   73  A    between atoms: _162  and  _163
REMARK   74  A    between atoms: _162  and  _165
REMARK   75  A    between atoms: _165  and  _166
REMARK   76  A    between atoms: _172  and  _174
REMARK   77  A    between atoms: _174  and  _175
REMARK   78  A    between atoms: _174  and  _177
REMARK   79  A    between atoms: _177  and  _178
REMARK   80  A    between atoms: _181  and  _183
REMARK   81  A    between atoms: _183  and  _184
REMARK   82  A    between atoms: _183  and  _186
REMARK   83  A    between atoms: _186  and  _187
REMARK   84  A    between atoms: _190  and  _192
REMARK   85  A    between atoms: _192  and  _193
REMARK   86  A    between atoms: _192  and  _195
REMARK   87  A    between atoms: _195  and  _196
REMARK   88  A    between atoms: _200  and  _201
REMARK   89  A    between atoms: _206  and  _208
REMARK   90  A    between atoms: _208  and  _209
REMARK   91  A    between atoms: _208  and  _211
REMARK   92  A    between atoms: _214  and  _216
REMARK   93  A    between atoms: _216  and  _217
REMARK   94  A    between atoms: _216  and  _219
REMARK   95  A    between atoms: _219  and  _220
REMARK   96  A    between atoms: _225  and  _227
REMARK   97  A    between atoms: _227  and  _228
REMARK   98  A    between atoms: _227  and  _230
REMARK   99  A    between atoms: _230  and  _231
REMARK  100  A    between atoms: _234  and  _236
REMARK  101  A    between atoms: _236  and  _237
REMARK  102  A    between atoms: _239  and  _241
REMARK  103  A    between atoms: _241  and  _242
REMARK  104  A    between atoms: _241  and  _244
REMARK  105  A    between atoms: _244  and  _245
REMARK  106  A    between atoms: _245  and  _246
REMARK  107  A    between atoms: _246  and  _247
REMARK  108  A    between atoms: _256  and  _258
REMARK  109  A    between atoms: _258  and  _259
REMARK  110  A    between atoms: _258  and  _261
REMARK  111  A    between atoms: _261  and  _262
REMARK  112  A    between atoms: _267  and  _269
REMARK  113  A    between atoms: _269  and  _270
REMARK  114  A    between atoms: _269  and  _272
REMARK  115  A    between atoms: _272  and  _273
REMARK  116  A    between atoms: _273  and  _274
REMARK  117  A    between atoms: _274  and  _275
REMARK  118  A    between atoms: _284  and  _286
REMARK  119  A    between atoms: _286  and  _287
REMARK  120  A    between atoms: _286  and  _289
REMARK  121  A    between atoms: _289  and  _290
REMARK  122  A    between atoms: _293  and  _295
REMARK  123  A    between atoms: _295  and  _296
REMARK  124  A    between atoms: _295  and  _298
REMARK  125  A    between atoms: _298  and  _299
REMARK  126  A    between atoms: _302  and  _304
REMARK  127  A    between atoms: _304  and  _305
REMARK  128  A    between atoms: _304  and  _307
REMARK  129  A    between atoms: _307  and  _308
REMARK  130  A    between atoms: _311  and  _313
REMARK  131  A    between atoms: _313  and  _314
REMARK  132  A    between atoms: _313  and  _316
REMARK  133  A    between atoms: _316  and  _317
REMARK  134  A    between atoms: _320  and  _322
REMARK  135  A    between atoms: _322  and  _323
REMARK  136  A    between atoms: _325  and  _327
REMARK  137  A    between atoms: _327  and  _328
REMARK  138  A    between atoms: _331  and  _333
REMARK  139  A    between atoms: _333  and  _334
REMARK  140  A    between atoms: _333  and  _336
REMARK  141  A    between atoms: _336  and  _337
REMARK  142  A    between atoms: _340  and  _342
REMARK  143  A    between atoms: _342  and  _343
REMARK  144  A    between atoms: _342  and  _345
REMARK  145  A    between atoms: _345  and  _346
REMARK  146  A    between atoms: _349  and  _351
REMARK  147  A    between atoms: _351  and  _352
REMARK  148  A    between atoms: _351  and  _354
REMARK  149  A    between atoms: _354  and  _355
REMARK  150  A    between atoms: _358  and  _360
REMARK  151  A    between atoms: _360  and  _361
REMARK  152  A    between atoms: _360  and  _363
REMARK  153  A    between atoms: _366  and  _368
REMARK  154  A    between atoms: _368  and  _369
REMARK  155  A    between atoms: _368  and  _371
REMARK  156  A    between atoms: _371  and  _372
REMARK  157  A    between atoms: _372  and  _373
REMARK  158  A    between atoms: _373  and  _374
REMARK  159  A    between atoms: _374  and  _375
REMARK  160  A    between atoms: _379  and  _381
REMARK  161  A    between atoms: _381  and  _382
REMARK  162  A    between atoms: _381  and  _384
REMARK  163  A    between atoms: _384  and  _385
REMARK  164  A    between atoms: _385  and  _386
REMARK  165  A    between atoms: _388  and  _390
REMARK  166  A    between atoms: _390  and  _391
REMARK  167  A    between atoms: _390  and  _393
REMARK  168  A    between atoms: _393  and  _394
REMARK  169  A    between atoms: _397  and  _399
REMARK  170  A    between atoms: _399  and  _400
REMARK  171  A    between atoms: _402  and  _404
REMARK  172  A    between atoms: _404  and  _405
REMARK  173  A    between atoms: _407  and  _409
REMARK  174  A    between atoms: _409  and  _410
REMARK  175  A    between atoms: _409  and  _412
REMARK  176  A    between atoms: _412  and  _413
REMARK  177  A    between atoms: _416  and  _418
REMARK  178  A    between atoms: _418  and  _419
REMARK  179  A    between atoms: _421  and  _423
REMARK  180  A    between atoms: _423  and  _424
REMARK  181  A    between atoms: _426  and  _428
REMARK  182  A    between atoms: _428  and  _429
REMARK  183  A    between atoms: _428  and  _431
REMARK  184  A    between atoms: _431  and  _432
REMARK  185  A    between atoms: _438  and  _440
REMARK  186  A    between atoms: _440  and  _441
REMARK  187  A    between atoms: _440  and  _443
REMARK  188  A    between atoms: _443  and  _444
REMARK  189  A    between atoms: _447  and  _449
REMARK  190  A    between atoms: _449  and  _450
REMARK  191  A    between atoms: _449  and  _452
REMARK  192  A    between atoms: _455  and  _457
REMARK  193  A    between atoms: _457  and  _458
REMARK  194  A    between atoms: _457  and  _460
REMARK  195  A    between atoms: _460  and  _461
REMARK  196  A    between atoms: _465  and  _466
REMARK  197  A    between atoms: _471  and  _473
REMARK  198  A    between atoms: _473  and  _474
REMARK  199  A    between atoms: _473  and  _476
REMARK  200  A    between atoms: _476  and  _477
REMARK  201  A    between atoms: _481  and  _482
REMARK  202  A    between atoms: _487  and  _489
REMARK  203  A    between atoms: _489  and  _490
REMARK  204  A    between atoms: _489  and  _492
REMARK  205  A    between atoms: _495  and  _497
REMARK  206  A    between atoms: _497  and  _498
REMARK  207  A    between atoms: _497  and  _500
REMARK  208  A    between atoms: _500  and  _501
REMARK  209  A    between atoms: _506  and  _508
REMARK  210  A    between atoms: _508  and  _509
REMARK  211  A    between atoms: _508  and  _511
REMARK  212  A    between atoms: _511  and  _512
REMARK  213  A    between atoms: _515  and  _517
REMARK  214  A    between atoms: _517  and  _518
REMARK  215  A    between atoms: _517  and  _520
REMARK  216  A    between atoms: _520  and  _521
REMARK  217  A    between atoms: _524  and  _526
REMARK  218  A    between atoms: _526  and  _527
REMARK  219  A    between atoms: _529  and  _531
REMARK  220  A    between atoms: _531  and  _532
REMARK  221  A    between atoms: _531  and  _534
REMARK  222  A    between atoms: _534  and  _535
REMARK  223  A    between atoms: _535  and  _536
REMARK  224  A    between atoms: _536  and  _537
REMARK  225  A    between atoms: _546  and  _548
REMARK  226  A    between atoms: _548  and  _549
REMARK  227  A    between atoms: _548  and  _551
REMARK  228  A    between atoms: _551  and  _552
REMARK                            x       y       z     vdW  Elec       q    Type
REMARK                         _______ _______ _______ _____ _____    ______ ____
ROOT
ATOM      1  O   HOH     1       7.197  22.582  11.372  0.00  0.00    +0.000 OA
ENDROOT
TORSDOF 0
REMARK  Name = ../refined-set-2016/3ok9/3ok9_pocket.pdb
REMARK  228 active torsions:
REMARK  status: ('A' for Active; 'I' for Inactive)
REMARK    1  A    between atoms: _1  and  _3
REMARK    2  A    between atoms: _3  and  _4
REMARK    3  A    between atoms: _3  and  _6
REMARK    4  A    between atoms: _6  and  _7
REMARK    5  A    between atoms: _7  and  _8
REMARK    6  A    between atoms: _8  and  _9
REMARK    7  A    between atoms: _18  and  _20
REMARK    8  A    between atoms: _20  and  _21
REMARK    9  A    between atoms: _20  and  _23
REMARK   10  A    between atoms: _23  and  _24
REMARK   11  A    between atoms: _27  and  _29
REMARK   12  A    between atoms: _29  and  _30
REMARK   13  A    between atoms: _29  and  _32
REMARK   14  A    between atoms: _32  and  _33
REMARK   15  A    between atoms: _36  and  _38
REMARK   16  A    between atoms: _38  and  _39
REMARK   17  A    between atoms: _38  and  _41
REMARK   18  A    between atoms: _41  and  _42
REMARK   19  A    between atoms: _45  and  _47
REMARK   20  A    between atoms: _47  and  _48
REMARK   21  A    between atoms: _47  and  _50
REMARK   22  A    between atoms: _50  and  _51
REMARK   23  A    between atoms: _54  and  _56
REMARK   24  A    between atoms: _56  and  _57
REMARK   25  A    between atoms: _59  and  _61
REMARK   26  A    between atoms: _61  and  _62
REMARK   27  A    between atoms: _65  and  _67
REMARK   28  A    between atoms: _67  and  _68
REMARK   29  A    between atoms: _67  and  _70
REMARK   30  A    between atoms: _70  and  _71
REMARK   31  A    between atoms: _74  and  _76
REMARK   32  A    between atoms: _76  and  _77
REMARK   33  A    between atoms: _76  and  _79
REMARK   34  A    between atoms: _79  and  _80
REMARK   35  A    between atoms: _83  and  _85
REMARK   36  A    between atoms: _85  and  _86
REMARK   37  A    between atoms: _85  and  _88
REMARK   38  A    between atoms: _88  and  _89
REMARK   39  A    between atoms: _92  and  _94
REMARK   40  A    between atoms: _94  and  _95
REMARK   41  A    between atoms: _94  and  _97
REMARK   42  A    between atoms: _100  and  _102
REMARK   43  A    between atoms: _102  and  _103
REMARK   44  A    between atoms: _102  and  _105
REMARK   45  A    between atoms: _105  and  _106
REMARK   46  A    between atoms: _106  and  _107
REMARK   47  A    between atoms: _107  and  _108
REMARK   48  A    between atoms: _108  and  _109
REMARK   49  A    between atoms: _113  and  _115
REMARK   50  A    between atoms: _115  and  _116
REMARK   51  A    between atoms: _115  and  _118
REMARK   52  A    between atoms: _118  and  _119
REMARK   53  A    between atoms: _119  and  _120
REMARK   54  A    between atoms: _122  and  _124
REMARK   55  A    between atoms: _124  and  _125
REMARK   56  A    between atoms: _124  and  _127
REMARK   57  A    between atoms: _127  and  _128
REMARK   58  A    between atoms: _131  and  _133
REMARK   59  A    between atoms: _133  and  _134
REMARK   60  A    between atoms: _136  and  _138
REMARK   61  A    between atoms: _138  and  _139
REMARK   62  A    between atoms: _141  and  _143
REMARK   63  A    between atoms: _143  and  _144
REMARK   64  A    between atoms: _143  and  _146
REMARK   65  A    between atoms: _144  and  _145
REMARK   66  A    between atoms: _144  and  _150
REMARK   67  A    between atoms: _146  and  _147
REMARK   68  A    between atoms: _150  and  _152
REMARK   69  A    between atoms: _152  and  _153
REMARK   70  A    between atoms: _155  and  _157
REMARK   71  A    between atoms: _157  and  _158
REMARK   72  A    between atoms: _160  and  _162
REMARK   73  A    between atoms: _162  and  _163
REMARK   74  A    between atoms: _162  and  _165
REMARK   75  A    between atoms: _165  and  _166
REMARK   76  A    between atoms: _172  and  _174
REMARK   77  A    between atoms: _174  and  _175
REMARK   78  A    between atoms: _174  and  _177
REMARK   79  A    between atoms: _177  and  _178
REMARK   80  A    between atoms: _181  and  _183
REMARK   81  A    between atoms: _183  and  _184
REMARK   82  A    between atoms: _183  and  _186
REMARK   83  A    between atoms: _186  and  _187
REMARK   84  A    between atoms: _190  and  _192
REMARK   85  A    between atoms: _192  and  _193
REMARK   86  A    between atoms: _192  and  _195
REMARK   87  A    between atoms: _195  and  _196
REMARK   88  A    between atoms: _200  and  _201
REMARK   89  A    between atoms: _206  and  _208
REMARK   90  A    between atoms: _208  and  _209
REMARK   91  A    between atoms: _208  and  _211
REMARK   92  A    between atoms: _214  and  _216
REMARK   93  A    between atoms: _216  and  _217
REMARK   94  A    between atoms: _216  and  _219
REMARK   95  A    between atoms: _219  and  _220
REMARK   96  A    between atoms: _225  and  _227
REMARK   97  A    between atoms: _227  and  _228
REMARK   98  A    between atoms: _227  and  _230
REMARK   99  A    between atoms: _230  and  _231
REMARK  100  A    between atoms: _234  and  _236
REMARK  101  A    between atoms: _236  and  _237
REMARK  102  A    between atoms: _239  and  _241
REMARK  103  A    between atoms: _241  and  _242
REMARK  104  A    between atoms: _241  and  _244
REMARK  105  A    between atoms: _244  and  _245
REMARK  106  A    between atoms: _245  and  _246
REMARK  107  A    between atoms: _246  and  _247
REMARK  108  A    between atoms: _256  and  _258
REMARK  109  A    between atoms: _258  and  _259
REMARK  110  A    between atoms: _258  and  _261
REMARK  111  A    between atoms: _261  and  _262
REMARK  112  A    between atoms: _267  and  _269
REMARK  113  A    between atoms: _269  and  _270
REMARK  114  A    between atoms: _269  and  _272
REMARK  115  A    between atoms: _272  and  _273
REMARK  116  A    between atoms: _273  and  _274
REMARK  117  A    between atoms: _274  and  _275
REMARK  118  A    between atoms: _284  and  _286
REMARK  119  A    between atoms: _286  and  _287
REMARK  120  A    between atoms: _286  and  _289
REMARK  121  A    between atoms: _289  and  _290
REMARK  122  A    between atoms: _293  and  _295
REMARK  123  A    between atoms: _295  and  _296
REMARK  124  A    between atoms: _295  and  _298
REMARK  125  A    between atoms: _298  and  _299
REMARK  126  A    between atoms: _302  and  _304
REMARK  127  A    between atoms: _304  and  _305
REMARK  128  A    between atoms: _304  and  _307
REMARK  129  A    between atoms: _307  and  _308
REMARK  130  A    between atoms: _311  and  _313
REMARK  131  A    between atoms: _313  and  _314
REMARK  132  A    between atoms: _313  and  _316
REMARK  133  A    between atoms: _316  and  _317
REMARK  134  A    between atoms: _320  and  _322
REMARK  135  A    between atoms: _322  and  _323
REMARK  136  A    between atoms: _325  and  _327
REMARK  137  A    between atoms: _327  and  _328
REMARK  138  A    between atoms: _331  and  _333
REMARK  139  A    between atoms: _333  and  _334
REMARK  140  A    between atoms: _333  and  _336
REMARK  141  A    between atoms: _336  and  _337
REMARK  142  A    between atoms: _340  and  _342
REMARK  143  A    between atoms: _342  and  _343
REMARK  144  A    between atoms: _342  and  _345
REMARK  145  A    between atoms: _345  and  _346
REMARK  146  A    between atoms: _349  and  _351
REMARK  147  A    between atoms: _351  and  _352
REMARK  148  A    between atoms: _351  and  _354
REMARK  149  A    between atoms: _354  and  _355
REMARK  150  A    between atoms: _358  and  _360
REMARK  151  A    between atoms: _360  and  _361
REMARK  152  A    between atoms: _360  and  _363
REMARK  153  A    between atoms: _366  and  _368
REMARK  154  A    between atoms: _368  and  _369
REMARK  155  A    between atoms: _368  and  _371
REMARK  156  A    between atoms: _371  and  _372
REMARK  157  A    between atoms: _372  and  _373
REMARK  158  A    between atoms: _373  and  _374
REMARK  159  A    between atoms: _374  and  _375
REMARK  160  A    between atoms: _379  and  _381
REMARK  161  A    between atoms: _381  and  _382
REMARK  162  A    between atoms: _381  and  _384
REMARK  163  A    between atoms: _384  and  _385
REMARK  164  A    between atoms: _385  and  _386
REMARK  165  A    between atoms: _388  and  _390
REMARK  166  A    between atoms: _390  and  _391
REMARK  167  A    between atoms: _390  and  _393
REMARK  168  A    between atoms: _393  and  _394
REMARK  169  A    between atoms: _397  and  _399
REMARK  170  A    between atoms: _399  and  _400
REMARK  171  A    between atoms: _402  and  _404
REMARK  172  A    between atoms: _404  and  _405
REMARK  173  A    between atoms: _407  and  _409
REMARK  174  A    between atoms: _409  and  _410
REMARK  175  A    between atoms: _409  and  _412
REMARK  176  A    between atoms: _412  and  _413
REMARK  177  A    between atoms: _416  and  _418
REMARK  178  A    between atoms: _418  and  _419
REMARK  179  A    between atoms: _421  and  _423
REMARK  180  A    between atoms: _423  and  _424
REMARK  181  A    between atoms: _426  and  _428
REMARK  182  A    between atoms: _428  and  _429
REMARK  183  A    between atoms: _428  and  _431
REMARK  184  A    between atoms: _431  and  _432
REMARK  185  A    between atoms: _438  and  _440
REMARK  186  A    between atoms: _440  and  _441
REMARK  187  A    between atoms: _440  and  _443
REMARK  188  A    between atoms: _443  and  _444
REMARK  189  A    between atoms: _447  and  _449
REMARK  190  A    between atoms: _449  and  _450
REMARK  191  A    between atoms: _449  and  _452
REMARK  192  A    between atoms: _455  and  _457
REMARK  193  A    between atoms: _457  and  _458
REMARK  194  A    between atoms: _457  and  _460
REMARK  195  A    between atoms: _460  and  _461
REMARK  196  A    between atoms: _465  and  _466
REMARK  197  A    between atoms: _471  and  _473
REMARK  198  A    between atoms: _473  and  _474
REMARK  199  A    between atoms: _473  and  _476
REMARK  200  A    between atoms: _476  and  _477
REMARK  201  A    between atoms: _481  and  _482
REMARK  202  A    between atoms: _487  and  _489
REMARK  203  A    between atoms: _489  and  _490
REMARK  204  A    between atoms: _489  and  _492
REMARK  205  A    between atoms: _495  and  _497
REMARK  206  A    between atoms: _497  and  _498
REMARK  207  A    between atoms: _497  and  _500
REMARK  208  A    between atoms: _500  and  _501
REMARK  209  A    between atoms: _506  and  _508
REMARK  210  A    between atoms: _508  and  _509
REMARK  211  A    between atoms: _508  and  _511
REMARK  212  A    between atoms: _511  and  _512
REMARK  213  A    between atoms: _515  and  _517
REMARK  214  A    between atoms: _517  and  _518
REMARK  215  A    between atoms: _517  and  _520
REMARK  216  A    between atoms: _520  and  _521
REMARK  217  A    between atoms: _524  and  _526
REMARK  218  A    between atoms: _526  and  _527
REMARK  219  A    between atoms: _529  and  _531
REMARK  220  A    between atoms: _531  and  _532
REMARK  221  A    between atoms: _531  and  _534
REMARK  222  A    between atoms: _534  and  _535
REMARK  223  A    between atoms: _535  and  _536
REMARK  224  A    between atoms: _536  and  _537
REMARK  225  A    between atoms: _546  and  _548
REMARK  226  A    between atoms: _548  and  _549
REMARK  227  A    between atoms: _548  and  _551
REMARK  228  A    between atoms: _551  and  _552
REMARK                            x       y       z     vdW  Elec       q    Type
REMARK                         _______ _______ _______ _____ _____    ______ ____
ROOT
ATOM      1  O   HOH     1      13.419  16.265  11.701  0.00  0.00    +0.000 OA
ENDROOT
TORSDOF 0
REMARK  Name = ../refined-set-2016/3ok9/3ok9_pocket.pdb
REMARK  228 active torsions:
REMARK  status: ('A' for Active; 'I' for Inactive)
REMARK    1  A    between atoms: _1  and  _3
REMARK    2  A    between atoms: _3  and  _4
REMARK    3  A    between atoms: _3  and  _6
REMARK    4  A    between atoms: _6  and  _7
REMARK    5  A    between atoms: _7  and  _8
REMARK    6  A    between atoms: _8  and  _9
REMARK    7  A    between atoms: _18  and  _20
REMARK    8  A    between atoms: _20  and  _21
REMARK    9  A    between atoms: _20  and  _23
REMARK   10  A    between atoms: _23  and  _24
REMARK   11  A    between atoms: _27  and  _29
REMARK   12  A    between atoms: _29  and  _30
REMARK   13  A    between atoms: _29  and  _32
REMARK   14  A    between atoms: _32  and  _33
REMARK   15  A    between atoms: _36  and  _38
REMARK   16  A    between atoms: _38  and  _39
REMARK   17  A    between atoms: _38  and  _41
REMARK   18  A    between atoms: _41  and  _42
REMARK   19  A    between atoms: _45  and  _47
REMARK   20  A    between atoms: _47  and  _48
REMARK   21  A    between atoms: _47  and  _50
REMARK   22  A    between atoms: _50  and  _51
REMARK   23  A    between atoms: _54  and  _56
REMARK   24  A    between atoms: _56  and  _57
REMARK   25  A    between atoms: _59  and  _61
REMARK   26  A    between atoms: _61  and  _62
REMARK   27  A    between atoms: _65  and  _67
REMARK   28  A    between atoms: _67  and  _68
REMARK   29  A    between atoms: _67  and  _70
REMARK   30  A    between atoms: _70  and  _71
REMARK   31  A    between atoms: _74  and  _76
REMARK   32  A    between atoms: _76  and  _77
REMARK   33  A    between atoms: _76  and  _79
REMARK   34  A    between atoms: _79  and  _80
REMARK   35  A    between atoms: _83  and  _85
REMARK   36  A    between atoms: _85  and  _86
REMARK   37  A    between atoms: _85  and  _88
REMARK   38  A    between atoms: _88  and  _89
REMARK   39  A    between atoms: _92  and  _94
REMARK   40  A    between atoms: _94  and  _95
REMARK   41  A    between atoms: _94  and  _97
REMARK   42  A    between atoms: _100  and  _102
REMARK   43  A    between atoms: _102  and  _103
REMARK   44  A    between atoms: _102  and  _105
REMARK   45  A    between atoms: _105  and  _106
REMARK   46  A    between atoms: _106  and  _107
REMARK   47  A    between atoms: _107  and  _108
REMARK   48  A    between atoms: _108  and  _109
REMARK   49  A    between atoms: _113  and  _115
REMARK   50  A    between atoms: _115  and  _116
REMARK   51  A    between atoms: _115  and  _118
REMARK   52  A    between atoms: _118  and  _119
REMARK   53  A    between atoms: _119  and  _120
REMARK   54  A    between atoms: _122  and  _124
REMARK   55  A    between atoms: _124  and  _125
REMARK   56  A    between atoms: _124  and  _127
REMARK   57  A    between atoms: _127  and  _128
REMARK   58  A    between atoms: _131  and  _133
REMARK   59  A    between atoms: _133  and  _134
REMARK   60  A    between atoms: _136  and  _138
REMARK   61  A    between atoms: _138  and  _139
REMARK   62  A    between atoms: _141  and  _143
REMARK   63  A    between atoms: _143  and  _144
REMARK   64  A    between atoms: _143  and  _146
REMARK   65  A    between atoms: _144  and  _145
REMARK   66  A    between atoms: _144  and  _150
REMARK   67  A    between atoms: _146  and  _147
REMARK   68  A    between atoms: _150  and  _152
REMARK   69  A    between atoms: _152  and  _153
REMARK   70  A    between atoms: _155  and  _157
REMARK   71  A    between atoms: _157  and  _158
REMARK   72  A    between atoms: _160  and  _162
REMARK   73  A    between atoms: _162  and  _163
REMARK   74  A    between atoms: _162  and  _165
REMARK   75  A    between atoms: _165  and  _166
REMARK   76  A    between atoms: _172  and  _174
REMARK   77  A    between atoms: _174  and  _175
REMARK   78  A    between atoms: _174  and  _177
REMARK   79  A    between atoms: _177  and  _178
REMARK   80  A    between atoms: _181  and  _183
REMARK   81  A    between atoms: _183  and  _184
REMARK   82  A    between atoms: _183  and  _186
REMARK   83  A    between atoms: _186  and  _187
REMARK   84  A    between atoms: _190  and  _192
REMARK   85  A    between atoms: _192  and  _193
REMARK   86  A    between atoms: _192  and  _195
REMARK   87  A    between atoms: _195  and  _196
REMARK   88  A    between atoms: _200  and  _201
REMARK   89  A    between atoms: _206  and  _208
REMARK   90  A    between atoms: _208  and  _209
REMARK   91  A    between atoms: _208  and  _211
REMARK   92  A    between atoms: _214  and  _216
REMARK   93  A    between atoms: _216  and  _217
REMARK   94  A    between atoms: _216  and  _219
REMARK   95  A    between atoms: _219  and  _220
REMARK   96  A    between atoms: _225  and  _227
REMARK   97  A    between atoms: _227  and  _228
REMARK   98  A    between atoms: _227  and  _230
REMARK   99  A    between atoms: _230  and  _231
REMARK  100  A    between atoms: _234  and  _236
REMARK  101  A    between atoms: _236  and  _237
REMARK  102  A    between atoms: _239  and  _241
REMARK  103  A    between atoms: _241  and  _242
REMARK  104  A    between atoms: _241  and  _244
REMARK  105  A    between atoms: _244  and  _245
REMARK  106  A    between atoms: _245  and  _246
REMARK  107  A    between atoms: _246  and  _247
REMARK  108  A    between atoms: _256  and  _258
REMARK  109  A    between atoms: _258  and  _259
REMARK  110  A    between atoms: _258  and  _261
REMARK  111  A    between atoms: _261  and  _262
REMARK  112  A    between atoms: _267  and  _269
REMARK  113  A    between atoms: _269  and  _270
REMARK  114  A    between atoms: _269  and  _272
REMARK  115  A    between atoms: _272  and  _273
REMARK  116  A    between atoms: _273  and  _274
REMARK  117  A    between atoms: _274  and  _275
REMARK  118  A    between atoms: _284  and  _286
REMARK  119  A    between atoms: _286  and  _287
REMARK  120  A    between atoms: _286  and  _289
REMARK  121  A    between atoms: _289  and  _290
REMARK  122  A    between atoms: _293  and  _295
REMARK  123  A    between atoms: _295  and  _296
REMARK  124  A    between atoms: _295  and  _298
REMARK  125  A    between atoms: _298  and  _299
REMARK  126  A    between atoms: _302  and  _304
REMARK  127  A    between atoms: _304  and  _305
REMARK  128  A    between atoms: _304  and  _307
REMARK  129  A    between atoms: _307  and  _308
REMARK  130  A    between atoms: _311  and  _313
REMARK  131  A    between atoms: _313  and  _314
REMARK  132  A    between atoms: _313  and  _316
REMARK  133  A    between atoms: _316  and  _317
REMARK  134  A    between atoms: _320  and  _322
REMARK  135  A    between atoms: _322  and  _323
REMARK  136  A    between atoms: _325  and  _327
REMARK  137  A    between atoms: _327  and  _328
REMARK  138  A    between atoms: _331  and  _333
REMARK  139  A    between atoms: _333  and  _334
REMARK  140  A    between atoms: _333  and  _336
REMARK  141  A    between atoms: _336  and  _337
REMARK  142  A    between atoms: _340  and  _342
REMARK  143  A    between atoms: _342  and  _343
REMARK  144  A    between atoms: _342  and  _345
REMARK  145  A    between atoms: _345  and  _346
REMARK  146  A    between atoms: _349  and  _351
REMARK  147  A    between atoms: _351  and  _352
REMARK  148  A    between atoms: _351  and  _354
REMARK  149  A    between atoms: _354  and  _355
REMARK  150  A    between atoms: _358  and  _360
REMARK  151  A    between atoms: _360  and  _361
REMARK  152  A    between atoms: _360  and  _363
REMARK  153  A    between atoms: _366  and  _368
REMARK  154  A    between atoms: _368  and  _369
REMARK  155  A    between atoms: _368  and  _371
REMARK  156  A    between atoms: _371  and  _372
REMARK  157  A    between atoms: _372  and  _373
REMARK  158  A    between atoms: _373  and  _374
REMARK  159  A    between atoms: _374  and  _375
REMARK  160  A    between atoms: _379  and  _381
REMARK  161  A    between atoms: _381  and  _382
REMARK  162  A    between atoms: _381  and  _384
REMARK  163  A    between atoms: _384  and  _385
REMARK  164  A    between atoms: _385  and  _386
REMARK  165  A    between atoms: _388  and  _390
REMARK  166  A    between atoms: _390  and  _391
REMARK  167  A    between atoms: _390  and  _393
REMARK  168  A    between atoms: _393  and  _394
REMARK  169  A    between atoms: _397  and  _399
REMARK  170  A    between atoms: _399  and  _400
REMARK  171  A    between atoms: _402  and  _404
REMARK  172  A    between atoms: _404  and  _405
REMARK  173  A    between atoms: _407  and  _409
REMARK  174  A    between atoms: _409  and  _410
REMARK  175  A    between atoms: _409  and  _412
REMARK  176  A    between atoms: _412  and  _413
REMARK  177  A    between atoms: _416  and  _418
REMARK  178  A    between atoms: _418  and  _419
REMARK  179  A    between atoms: _421  and  _423
REMARK  180  A    between atoms: _423  and  _424
REMARK  181  A    between atoms: _426  and  _428
REMARK  182  A    between atoms: _428  and  _429
REMARK  183  A    between atoms: _428  and  _431
REMARK  184  A    between atoms: _431  and  _432
REMARK  185  A    between atoms: _438  and  _440
REMARK  186  A    between atoms: _440  and  _441
REMARK  187  A    between atoms: _440  and  _443
REMARK  188  A    between atoms: _443  and  _444
REMARK  189  A    between atoms: _447  and  _449
REMARK  190  A    between atoms: _449  and  _450
REMARK  191  A    between atoms: _449  and  _452
REMARK  192  A    between atoms: _455  and  _457
REMARK  193  A    between atoms: _457  and  _458
REMARK  194  A    between atoms: _457  and  _460
REMARK  195  A    between atoms: _460  and  _461
REMARK  196  A    between atoms: _465  and  _466
REMARK  197  A    between atoms: _471  and  _473
REMARK  198  A    between atoms: _473  and  _474
REMARK  199  A    between atoms: _473  and  _476
REMARK  200  A    between atoms: _476  and  _477
REMARK  201  A    between atoms: _481  and  _482
REMARK  202  A    between atoms: _487  and  _489
REMARK  203  A    between atoms: _489  and  _490
REMARK  204  A    between atoms: _489  and  _492
REMARK  205  A    between atoms: _495  and  _497
REMARK  206  A    between atoms: _497  and  _498
REMARK  207  A    between atoms: _497  and  _500
REMARK  208  A    between atoms: _500  and  _501
REMARK  209  A    between atoms: _506  and  _508
REMARK  210  A    between atoms: _508  and  _509
REMARK  211  A    between atoms: _508  and  _511
REMARK  212  A    between atoms: _511  and  _512
REMARK  213  A    between atoms: _515  and  _517
REMARK  214  A    between atoms: _517  and  _518
REMARK  215  A    between atoms: _517  and  _520
REMARK  216  A    between atoms: _520  and  _521
REMARK  217  A    between atoms: _524  and  _526
REMARK  218  A    between atoms: _526  and  _527
REMARK  219  A    between atoms: _529  and  _531
REMARK  220  A    between atoms: _531  and  _532
REMARK  221  A    between atoms: _531  and  _534
REMARK  222  A    between atoms: _534  and  _535
REMARK  223  A    between atoms: _535  and  _536
REMARK  224  A    between atoms: _536  and  _537
REMARK  225  A    between atoms: _546  and  _548
REMARK  226  A    between atoms: _548  and  _549
REMARK  227  A    between atoms: _548  and  _551
REMARK  228  A    between atoms: _551  and  _552
REMARK                            x       y       z     vdW  Elec       q    Type
REMARK                         _______ _______ _______ _____ _____    ______ ____
ROOT
ATOM      1  O   HOH     1      10.597  14.891  13.456  0.00  0.00    +0.000 OA
ENDROOT
TORSDOF 0
REMARK  Name = ../refined-set-2016/3ok9/3ok9_pocket.pdb
REMARK  228 active torsions:
REMARK  status: ('A' for Active; 'I' for Inactive)
REMARK    1  A    between atoms: _1  and  _3
REMARK    2  A    between atoms: _3  and  _4
REMARK    3  A    between atoms: _3  and  _6
REMARK    4  A    between atoms: _6  and  _7
REMARK    5  A    between atoms: _7  and  _8
REMARK    6  A    between atoms: _8  and  _9
REMARK    7  A    between atoms: _18  and  _20
REMARK    8  A    between atoms: _20  and  _21
REMARK    9  A    between atoms: _20  and  _23
REMARK   10  A    between atoms: _23  and  _24
REMARK   11  A    between atoms: _27  and  _29
REMARK   12  A    between atoms: _29  and  _30
REMARK   13  A    between atoms: _29  and  _32
REMARK   14  A    between atoms: _32  and  _33
REMARK   15  A    between atoms: _36  and  _38
REMARK   16  A    between atoms: _38  and  _39
REMARK   17  A    between atoms: _38  and  _41
REMARK   18  A    between atoms: _41  and  _42
REMARK   19  A    between atoms: _45  and  _47
REMARK   20  A    between atoms: _47  and  _48
REMARK   21  A    between atoms: _47  and  _50
REMARK   22  A    between atoms: _50  and  _51
REMARK   23  A    between atoms: _54  and  _56
REMARK   24  A    between atoms: _56  and  _57
REMARK   25  A    between atoms: _59  and  _61
REMARK   26  A    between atoms: _61  and  _62
REMARK   27  A    between atoms: _65  and  _67
REMARK   28  A    between atoms: _67  and  _68
REMARK   29  A    between atoms: _67  and  _70
REMARK   30  A    between atoms: _70  and  _71
REMARK   31  A    between atoms: _74  and  _76
REMARK   32  A    between atoms: _76  and  _77
REMARK   33  A    between atoms: _76  and  _79
REMARK   34  A    between atoms: _79  and  _80
REMARK   35  A    between atoms: _83  and  _85
REMARK   36  A    between atoms: _85  and  _86
REMARK   37  A    between atoms: _85  and  _88
REMARK   38  A    between atoms: _88  and  _89
REMARK   39  A    between atoms: _92  and  _94
REMARK   40  A    between atoms: _94  and  _95
REMARK   41  A    between atoms: _94  and  _97
REMARK   42  A    between atoms: _100  and  _102
REMARK   43  A    between atoms: _102  and  _103
REMARK   44  A    between atoms: _102  and  _105
REMARK   45  A    between atoms: _105  and  _106
REMARK   46  A    between atoms: _106  and  _107
REMARK   47  A    between atoms: _107  and  _108
REMARK   48  A    between atoms: _108  and  _109
REMARK   49  A    between atoms: _113  and  _115
REMARK   50  A    between atoms: _115  and  _116
REMARK   51  A    between atoms: _115  and  _118
REMARK   52  A    between atoms: _118  and  _119
REMARK   53  A    between atoms: _119  and  _120
REMARK   54  A    between atoms: _122  and  _124
REMARK   55  A    between atoms: _124  and  _125
REMARK   56  A    between atoms: _124  and  _127
REMARK   57  A    between atoms: _127  and  _128
REMARK   58  A    between atoms: _131  and  _133
REMARK   59  A    between atoms: _133  and  _134
REMARK   60  A    between atoms: _136  and  _138
REMARK   61  A    between atoms: _138  and  _139
REMARK   62  A    between atoms: _141  and  _143
REMARK   63  A    between atoms: _143  and  _144
REMARK   64  A    between atoms: _143  and  _146
REMARK   65  A    between atoms: _144  and  _145
REMARK   66  A    between atoms: _144  and  _150
REMARK   67  A    between atoms: _146  and  _147
REMARK   68  A    between atoms: _150  and  _152
REMARK   69  A    between atoms: _152  and  _153
REMARK   70  A    between atoms: _155  and  _157
REMARK   71  A    between atoms: _157  and  _158
REMARK   72  A    between atoms: _160  and  _162
REMARK   73  A    between atoms: _162  and  _163
REMARK   74  A    between atoms: _162  and  _165
REMARK   75  A    between atoms: _165  and  _166
REMARK   76  A    between atoms: _172  and  _174
REMARK   77  A    between atoms: _174  and  _175
REMARK   78  A    between atoms: _174  and  _177
REMARK   79  A    between atoms: _177  and  _178
REMARK   80  A    between atoms: _181  and  _183
REMARK   81  A    between atoms: _183  and  _184
REMARK   82  A    between atoms: _183  and  _186
REMARK   83  A    between atoms: _186  and  _187
REMARK   84  A    between atoms: _190  and  _192
REMARK   85  A    between atoms: _192  and  _193
REMARK   86  A    between atoms: _192  and  _195
REMARK   87  A    between atoms: _195  and  _196
REMARK   88  A    between atoms: _200  and  _201
REMARK   89  A    between atoms: _206  and  _208
REMARK   90  A    between atoms: _208  and  _209
REMARK   91  A    between atoms: _208  and  _211
REMARK   92  A    between atoms: _214  and  _216
REMARK   93  A    between atoms: _216  and  _217
REMARK   94  A    between atoms: _216  and  _219
REMARK   95  A    between atoms: _219  and  _220
REMARK   96  A    between atoms: _225  and  _227
REMARK   97  A    between atoms: _227  and  _228
REMARK   98  A    between atoms: _227  and  _230
REMARK   99  A    between atoms: _230  and  _231
REMARK  100  A    between atoms: _234  and  _236
REMARK  101  A    between atoms: _236  and  _237
REMARK  102  A    between atoms: _239  and  _241
REMARK  103  A    between atoms: _241  and  _242
REMARK  104  A    between atoms: _241  and  _244
REMARK  105  A    between atoms: _244  and  _245
REMARK  106  A    between atoms: _245  and  _246
REMARK  107  A    between atoms: _246  and  _247
REMARK  108  A    between atoms: _256  and  _258
REMARK  109  A    between atoms: _258  and  _259
REMARK  110  A    between atoms: _258  and  _261
REMARK  111  A    between atoms: _261  and  _262
REMARK  112  A    between atoms: _267  and  _269
REMARK  113  A    between atoms: _269  and  _270
REMARK  114  A    between atoms: _269  and  _272
REMARK  115  A    between atoms: _272  and  _273
REMARK  116  A    between atoms: _273  and  _274
REMARK  117  A    between atoms: _274  and  _275
REMARK  118  A    between atoms: _284  and  _286
REMARK  119  A    between atoms: _286  and  _287
REMARK  120  A    between atoms: _286  and  _289
REMARK  121  A    between atoms: _289  and  _290
REMARK  122  A    between atoms: _293  and  _295
REMARK  123  A    between atoms: _295  and  _296
REMARK  124  A    between atoms: _295  and  _298
REMARK  125  A    between atoms: _298  and  _299
REMARK  126  A    between atoms: _302  and  _304
REMARK  127  A    between atoms: _304  and  _305
REMARK  128  A    between atoms: _304  and  _307
REMARK  129  A    between atoms: _307  and  _308
REMARK  130  A    between atoms: _311  and  _313
REMARK  131  A    between atoms: _313  and  _314
REMARK  132  A    between atoms: _313  and  _316
REMARK  133  A    between atoms: _316  and  _317
REMARK  134  A    between atoms: _320  and  _322
REMARK  135  A    between atoms: _322  and  _323
REMARK  136  A    between atoms: _325  and  _327
REMARK  137  A    between atoms: _327  and  _328
REMARK  138  A    between atoms: _331  and  _333
REMARK  139  A    between atoms: _333  and  _334
REMARK  140  A    between atoms: _333  and  _336
REMARK  141  A    between atoms: _336  and  _337
REMARK  142  A    between atoms: _340  and  _342
REMARK  143  A    between atoms: _342  and  _343
REMARK  144  A    between atoms: _342  and  _345
REMARK  145  A    between atoms: _345  and  _346
REMARK  146  A    between atoms: _349  and  _351
REMARK  147  A    between atoms: _351  and  _352
REMARK  148  A    between atoms: _351  and  _354
REMARK  149  A    between atoms: _354  and  _355
REMARK  150  A    between atoms: _358  and  _360
REMARK  151  A    between atoms: _360  and  _361
REMARK  152  A    between atoms: _360  and  _363
REMARK  153  A    between atoms: _366  and  _368
REMARK  154  A    between atoms: _368  and  _369
REMARK  155  A    between atoms: _368  and  _371
REMARK  156  A    between atoms: _371  and  _372
REMARK  157  A    between atoms: _372  and  _373
REMARK  158  A    between atoms: _373  and  _374
REMARK  159  A    between atoms: _374  and  _375
REMARK  160  A    between atoms: _379  and  _381
REMARK  161  A    between atoms: _381  and  _382
REMARK  162  A    between atoms: _381  and  _384
REMARK  163  A    between atoms: _384  and  _385
REMARK  164  A    between atoms: _385  and  _386
REMARK  165  A    between atoms: _388  and  _390
REMARK  166  A    between atoms: _390  and  _391
REMARK  167  A    between atoms: _390  and  _393
REMARK  168  A    between atoms: _393  and  _394
REMARK  169  A    between atoms: _397  and  _399
REMARK  170  A    between atoms: _399  and  _400
REMARK  171  A    between atoms: _402  and  _404
REMARK  172  A    between atoms: _404  and  _405
REMARK  173  A    between atoms: _407  and  _409
REMARK  174  A    between atoms: _409  and  _410
REMARK  175  A    between atoms: _409  and  _412
REMARK  176  A    between atoms: _412  and  _413
REMARK  177  A    between atoms: _416  and  _418
REMARK  178  A    between atoms: _418  and  _419
REMARK  179  A    between atoms: _421  and  _423
REMARK  180  A    between atoms: _423  and  _424
REMARK  181  A    between atoms: _426  and  _428
REMARK  182  A    between atoms: _428  and  _429
REMARK  183  A    between atoms: _428  and  _431
REMARK  184  A    between atoms: _431  and  _432
REMARK  185  A    between atoms: _438  and  _440
REMARK  186  A    between atoms: _440  and  _441
REMARK  187  A    between atoms: _440  and  _443
REMARK  188  A    between atoms: _443  and  _444
REMARK  189  A    between atoms: _447  and  _449
REMARK  190  A    between atoms: _449  and  _450
REMARK  191  A    between atoms: _449  and  _452
REMARK  192  A    between atoms: _455  and  _457
REMARK  193  A    between atoms: _457  and  _458
REMARK  194  A    between atoms: _457  and  _460
REMARK  195  A    between atoms: _460  and  _461
REMARK  196  A    between atoms: _465  and  _466
REMARK  197  A    between atoms: _471  and  _473
REMARK  198  A    between atoms: _473  and  _474
REMARK  199  A    between atoms: _473  and  _476
REMARK  200  A    between atoms: _476  and  _477
REMARK  201  A    between atoms: _481  and  _482
REMARK  202  A    between atoms: _487  and  _489
REMARK  203  A    between atoms: _489  and  _490
REMARK  204  A    between atoms: _489  and  _492
REMARK  205  A    between atoms: _495  and  _497
REMARK  206  A    between atoms: _497  and  _498
REMARK  207  A    between atoms: _497  and  _500
REMARK  208  A    between atoms: _500  and  _501
REMARK  209  A    between atoms: _506  and  _508
REMARK  210  A    between atoms: _508  and  _509
REMARK  211  A    between atoms: _508  and  _511
REMARK  212  A    between atoms: _511  and  _512
REMARK  213  A    between atoms: _515  and  _517
REMARK  214  A    between atoms: _517  and  _518
REMARK  215  A    between atoms: _517  and  _520
REMARK  216  A    between atoms: _520  and  _521
REMARK  217  A    between atoms: _524  and  _526
REMARK  218  A    between atoms: _526  and  _527
REMARK  219  A    between atoms: _529  and  _531
REMARK  220  A    between atoms: _531  and  _532
REMARK  221  A    between atoms: _531  and  _534
REMARK  222  A    between atoms: _534  and  _535
REMARK  223  A    between atoms: _535  and  _536
REMARK  224  A    between atoms: _536  and  _537
REMARK  225  A    between atoms: _546  and  _548
REMARK  226  A    between atoms: _548  and  _549
REMARK  227  A    between atoms: _548  and  _551
REMARK  228  A    between atoms: _551  and  _552
REMARK                            x       y       z     vdW  Elec       q    Type
REMARK                         _______ _______ _______ _____ _____    ______ ____
ROOT
ATOM      1  O   HOH     1       6.719  15.818  17.980  0.00  0.00    +0.000 OA
ENDROOT
TORSDOF 0
REMARK  Name = ../refined-set-2016/3ok9/3ok9_pocket.pdb
REMARK  228 active torsions:
REMARK  status: ('A' for Active; 'I' for Inactive)
REMARK    1  A    between atoms: _1  and  _3
REMARK    2  A    between atoms: _3  and  _4
REMARK    3  A    between atoms: _3  and  _6
REMARK    4  A    between atoms: _6  and  _7
REMARK    5  A    between atoms: _7  and  _8
REMARK    6  A    between atoms: _8  and  _9
REMARK    7  A    between atoms: _18  and  _20
REMARK    8  A    between atoms: _20  and  _21
REMARK    9  A    between atoms: _20  and  _23
REMARK   10  A    between atoms: _23  and  _24
REMARK   11  A    between atoms: _27  and  _29
REMARK   12  A    between atoms: _29  and  _30
REMARK   13  A    between atoms: _29  and  _32
REMARK   14  A    between atoms: _32  and  _33
REMARK   15  A    between atoms: _36  and  _38
REMARK   16  A    between atoms: _38  and  _39
REMARK   17  A    between atoms: _38  and  _41
REMARK   18  A    between atoms: _41  and  _42
REMARK   19  A    between atoms: _45  and  _47
REMARK   20  A    between atoms: _47  and  _48
REMARK   21  A    between atoms: _47  and  _50
REMARK   22  A    between atoms: _50  and  _51
REMARK   23  A    between atoms: _54  and  _56
REMARK   24  A    between atoms: _56  and  _57
REMARK   25  A    between atoms: _59  and  _61
REMARK   26  A    between atoms: _61  and  _62
REMARK   27  A    between atoms: _65  and  _67
REMARK   28  A    between atoms: _67  and  _68
REMARK   29  A    between atoms: _67  and  _70
REMARK   30  A    between atoms: _70  and  _71
REMARK   31  A    between atoms: _74  and  _76
REMARK   32  A    between atoms: _76  and  _77
REMARK   33  A    between atoms: _76  and  _79
REMARK   34  A    between atoms: _79  and  _80
REMARK   35  A    between atoms: _83  and  _85
REMARK   36  A    between atoms: _85  and  _86
REMARK   37  A    between atoms: _85  and  _88
REMARK   38  A    between atoms: _88  and  _89
REMARK   39  A    between atoms: _92  and  _94
REMARK   40  A    between atoms: _94  and  _95
REMARK   41  A    between atoms: _94  and  _97
REMARK   42  A    between atoms: _100  and  _102
REMARK   43  A    between atoms: _102  and  _103
REMARK   44  A    between atoms: _102  and  _105
REMARK   45  A    between atoms: _105  and  _106
REMARK   46  A    between atoms: _106  and  _107
REMARK   47  A    between atoms: _107  and  _108
REMARK   48  A    between atoms: _108  and  _109
REMARK   49  A    between atoms: _113  and  _115
REMARK   50  A    between atoms: _115  and  _116
REMARK   51  A    between atoms: _115  and  _118
REMARK   52  A    between atoms: _118  and  _119
REMARK   53  A    between atoms: _119  and  _120
REMARK   54  A    between atoms: _122  and  _124
REMARK   55  A    between atoms: _124  and  _125
REMARK   56  A    between atoms: _124  and  _127
REMARK   57  A    between atoms: _127  and  _128
REMARK   58  A    between atoms: _131  and  _133
REMARK   59  A    between atoms: _133  and  _134
REMARK   60  A    between atoms: _136  and  _138
REMARK   61  A    between atoms: _138  and  _139
REMARK   62  A    between atoms: _141  and  _143
REMARK   63  A    between atoms: _143  and  _144
REMARK   64  A    between atoms: _143  and  _146
REMARK   65  A    between atoms: _144  and  _145
REMARK   66  A    between atoms: _144  and  _150
REMARK   67  A    between atoms: _146  and  _147
REMARK   68  A    between atoms: _150  and  _152
REMARK   69  A    between atoms: _152  and  _153
REMARK   70  A    between atoms: _155  and  _157
REMARK   71  A    between atoms: _157  and  _158
REMARK   72  A    between atoms: _160  and  _162
REMARK   73  A    between atoms: _162  and  _163
REMARK   74  A    between atoms: _162  and  _165
REMARK   75  A    between atoms: _165  and  _166
REMARK   76  A    between atoms: _172  and  _174
REMARK   77  A    between atoms: _174  and  _175
REMARK   78  A    between atoms: _174  and  _177
REMARK   79  A    between atoms: _177  and  _178
REMARK   80  A    between atoms: _181  and  _183
REMARK   81  A    between atoms: _183  and  _184
REMARK   82  A    between atoms: _183  and  _186
REMARK   83  A    between atoms: _186  and  _187
REMARK   84  A    between atoms: _190  and  _192
REMARK   85  A    between atoms: _192  and  _193
REMARK   86  A    between atoms: _192  and  _195
REMARK   87  A    between atoms: _195  and  _196
REMARK   88  A    between atoms: _200  and  _201
REMARK   89  A    between atoms: _206  and  _208
REMARK   90  A    between atoms: _208  and  _209
REMARK   91  A    between atoms: _208  and  _211
REMARK   92  A    between atoms: _214  and  _216
REMARK   93  A    between atoms: _216  and  _217
REMARK   94  A    between atoms: _216  and  _219
REMARK   95  A    between atoms: _219  and  _220
REMARK   96  A    between atoms: _225  and  _227
REMARK   97  A    between atoms: _227  and  _228
REMARK   98  A    between atoms: _227  and  _230
REMARK   99  A    between atoms: _230  and  _231
REMARK  100  A    between atoms: _234  and  _236
REMARK  101  A    between atoms: _236  and  _237
REMARK  102  A    between atoms: _239  and  _241
REMARK  103  A    between atoms: _241  and  _242
REMARK  104  A    between atoms: _241  and  _244
REMARK  105  A    between atoms: _244  and  _245
REMARK  106  A    between atoms: _245  and  _246
REMARK  107  A    between atoms: _246  and  _247
REMARK  108  A    between atoms: _256  and  _258
REMARK  109  A    between atoms: _258  and  _259
REMARK  110  A    between atoms: _258  and  _261
REMARK  111  A    between atoms: _261  and  _262
REMARK  112  A    between atoms: _267  and  _269
REMARK  113  A    between atoms: _269  and  _270
REMARK  114  A    between atoms: _269  and  _272
REMARK  115  A    between atoms: _272  and  _273
REMARK  116  A    between atoms: _273  and  _274
REMARK  117  A    between atoms: _274  and  _275
REMARK  118  A    between atoms: _284  and  _286
REMARK  119  A    between atoms: _286  and  _287
REMARK  120  A    between atoms: _286  and  _289
REMARK  121  A    between atoms: _289  and  _290
REMARK  122  A    between atoms: _293  and  _295
REMARK  123  A    between atoms: _295  and  _296
REMARK  124  A    between atoms: _295  and  _298
REMARK  125  A    between atoms: _298  and  _299
REMARK  126  A    between atoms: _302  and  _304
REMARK  127  A    between atoms: _304  and  _305
REMARK  128  A    between atoms: _304  and  _307
REMARK  129  A    between atoms: _307  and  _308
REMARK  130  A    between atoms: _311  and  _313
REMARK  131  A    between atoms: _313  and  _314
REMARK  132  A    between atoms: _313  and  _316
REMARK  133  A    between atoms: _316  and  _317
REMARK  134  A    between atoms: _320  and  _322
REMARK  135  A    between atoms: _322  and  _323
REMARK  136  A    between atoms: _325  and  _327
REMARK  137  A    between atoms: _327  and  _328
REMARK  138  A    between atoms: _331  and  _333
REMARK  139  A    between atoms: _333  and  _334
REMARK  140  A    between atoms: _333  and  _336
REMARK  141  A    between atoms: _336  and  _337
REMARK  142  A    between atoms: _340  and  _342
REMARK  143  A    between atoms: _342  and  _343
REMARK  144  A    between atoms: _342  and  _345
REMARK  145  A    between atoms: _345  and  _346
REMARK  146  A    between atoms: _349  and  _351
REMARK  147  A    between atoms: _351  and  _352
REMARK  148  A    between atoms: _351  and  _354
REMARK  149  A    between atoms: _354  and  _355
REMARK  150  A    between atoms: _358  and  _360
REMARK  151  A    between atoms: _360  and  _361
REMARK  152  A    between atoms: _360  and  _363
REMARK  153  A    between atoms: _366  and  _368
REMARK  154  A    between atoms: _368  and  _369
REMARK  155  A    between atoms: _368  and  _371
REMARK  156  A    between atoms: _371  and  _372
REMARK  157  A    between atoms: _372  and  _373
REMARK  158  A    between atoms: _373  and  _374
REMARK  159  A    between atoms: _374  and  _375
REMARK  160  A    between atoms: _379  and  _381
REMARK  161  A    between atoms: _381  and  _382
REMARK  162  A    between atoms: _381  and  _384
REMARK  163  A    between atoms: _384  and  _385
REMARK  164  A    between atoms: _385  and  _386
REMARK  165  A    between atoms: _388  and  _390
REMARK  166  A    between atoms: _390  and  _391
REMARK  167  A    between atoms: _390  and  _393
REMARK  168  A    between atoms: _393  and  _394
REMARK  169  A    between atoms: _397  and  _399
REMARK  170  A    between atoms: _399  and  _400
REMARK  171  A    between atoms: _402  and  _404
REMARK  172  A    between atoms: _404  and  _405
REMARK  173  A    between atoms: _407  and  _409
REMARK  174  A    between atoms: _409  and  _410
REMARK  175  A    between atoms: _409  and  _412
REMARK  176  A    between atoms: _412  and  _413
REMARK  177  A    between atoms: _416  and  _418
REMARK  178  A    between atoms: _418  and  _419
REMARK  179  A    between atoms: _421  and  _423
REMARK  180  A    between atoms: _423  and  _424
REMARK  181  A    between atoms: _426  and  _428
REMARK  182  A    between atoms: _428  and  _429
REMARK  183  A    between atoms: _428  and  _431
REMARK  184  A    between atoms: _431  and  _432
REMARK  185  A    between atoms: _438  and  _440
REMARK  186  A    between atoms: _440  and  _441
REMARK  187  A    between atoms: _440  and  _443
REMARK  188  A    between atoms: _443  and  _444
REMARK  189  A    between atoms: _447  and  _449
REMARK  190  A    between atoms: _449  and  _450
REMARK  191  A    between atoms: _449  and  _452
REMARK  192  A    between atoms: _455  and  _457
REMARK  193  A    between atoms: _457  and  _458
REMARK  194  A    between atoms: _457  and  _460
REMARK  195  A    between atoms: _460  and  _461
REMARK  196  A    between atoms: _465  and  _466
REMARK  197  A    between atoms: _471  and  _473
REMARK  198  A    between atoms: _473  and  _474
REMARK  199  A    between atoms: _473  and  _476
REMARK  200  A    between atoms: _476  and  _477
REMARK  201  A    between atoms: _481  and  _482
REMARK  202  A    between atoms: _487  and  _489
REMARK  203  A    between atoms: _489  and  _490
REMARK  204  A    between atoms: _489  and  _492
REMARK  205  A    between atoms: _495  and  _497
REMARK  206  A    between atoms: _497  and  _498
REMARK  207  A    between atoms: _497  and  _500
REMARK  208  A    between atoms: _500  and  _501
REMARK  209  A    between atoms: _506  and  _508
REMARK  210  A    between atoms: _508  and  _509
REMARK  211  A    between atoms: _508  and  _511
REMARK  212  A    between atoms: _511  and  _512
REMARK  213  A    between atoms: _515  and  _517
REMARK  214  A    between atoms: _517  and  _518
REMARK  215  A    between atoms: _517  and  _520
REMARK  216  A    between atoms: _520  and  _521
REMARK  217  A    between atoms: _524  and  _526
REMARK  218  A    between atoms: _526  and  _527
REMARK  219  A    between atoms: _529  and  _531
REMARK  220  A    between atoms: _531  and  _532
REMARK  221  A    between atoms: _531  and  _534
REMARK  222  A    between atoms: _534  and  _535
REMARK  223  A    between atoms: _535  and  _536
REMARK  224  A    between atoms: _536  and  _537
REMARK  225  A    between atoms: _546  and  _548
REMARK  226  A    between atoms: _548  and  _549
REMARK  227  A    between atoms: _548  and  _551
REMARK  228  A    between atoms: _551  and  _552
REMARK                            x       y       z     vdW  Elec       q    Type
REMARK                         _______ _______ _______ _____ _____    ______ ____
ROOT
ATOM      1  O   HOH     1      20.681  28.117  18.215  0.00  0.00    +0.000 OA
ENDROOT
TORSDOF 0
REMARK  Name = ../refined-set-2016/3ok9/3ok9_pocket.pdb
REMARK  228 active torsions:
REMARK  status: ('A' for Active; 'I' for Inactive)
REMARK    1  A    between atoms: _1  and  _3
REMARK    2  A    between atoms: _3  and  _4
REMARK    3  A    between atoms: _3  and  _6
REMARK    4  A    between atoms: _6  and  _7
REMARK    5  A    between atoms: _7  and  _8
REMARK    6  A    between atoms: _8  and  _9
REMARK    7  A    between atoms: _18  and  _20
REMARK    8  A    between atoms: _20  and  _21
REMARK    9  A    between atoms: _20  and  _23
REMARK   10  A    between atoms: _23  and  _24
REMARK   11  A    between atoms: _27  and  _29
REMARK   12  A    between atoms: _29  and  _30
REMARK   13  A    between atoms: _29  and  _32
REMARK   14  A    between atoms: _32  and  _33
REMARK   15  A    between atoms: _36  and  _38
REMARK   16  A    between atoms: _38  and  _39
REMARK   17  A    between atoms: _38  and  _41
REMARK   18  A    between atoms: _41  and  _42
REMARK   19  A    between atoms: _45  and  _47
REMARK   20  A    between atoms: _47  and  _48
REMARK   21  A    between atoms: _47  and  _50
REMARK   22  A    between atoms: _50  and  _51
REMARK   23  A    between atoms: _54  and  _56
REMARK   24  A    between atoms: _56  and  _57
REMARK   25  A    between atoms: _59  and  _61
REMARK   26  A    between atoms: _61  and  _62
REMARK   27  A    between atoms: _65  and  _67
REMARK   28  A    between atoms: _67  and  _68
REMARK   29  A    between atoms: _67  and  _70
REMARK   30  A    between atoms: _70  and  _71
REMARK   31  A    between atoms: _74  and  _76
REMARK   32  A    between atoms: _76  and  _77
REMARK   33  A    between atoms: _76  and  _79
REMARK   34  A    between atoms: _79  and  _80
REMARK   35  A    between atoms: _83  and  _85
REMARK   36  A    between atoms: _85  and  _86
REMARK   37  A    between atoms: _85  and  _88
REMARK   38  A    between atoms: _88  and  _89
REMARK   39  A    between atoms: _92  and  _94
REMARK   40  A    between atoms: _94  and  _95
REMARK   41  A    between atoms: _94  and  _97
REMARK   42  A    between atoms: _100  and  _102
REMARK   43  A    between atoms: _102  and  _103
REMARK   44  A    between atoms: _102  and  _105
REMARK   45  A    between atoms: _105  and  _106
REMARK   46  A    between atoms: _106  and  _107
REMARK   47  A    between atoms: _107  and  _108
REMARK   48  A    between atoms: _108  and  _109
REMARK   49  A    between atoms: _113  and  _115
REMARK   50  A    between atoms: _115  and  _116
REMARK   51  A    between atoms: _115  and  _118
REMARK   52  A    between atoms: _118  and  _119
REMARK   53  A    between atoms: _119  and  _120
REMARK   54  A    between atoms: _122  and  _124
REMARK   55  A    between atoms: _124  and  _125
REMARK   56  A    between atoms: _124  and  _127
REMARK   57  A    between atoms: _127  and  _128
REMARK   58  A    between atoms: _131  and  _133
REMARK   59  A    between atoms: _133  and  _134
REMARK   60  A    between atoms: _136  and  _138
REMARK   61  A    between atoms: _138  and  _139
REMARK   62  A    between atoms: _141  and  _143
REMARK   63  A    between atoms: _143  and  _144
REMARK   64  A    between atoms: _143  and  _146
REMARK   65  A    between atoms: _144  and  _145
REMARK   66  A    between atoms: _144  and  _150
REMARK   67  A    between atoms: _146  and  _147
REMARK   68  A    between atoms: _150  and  _152
REMARK   69  A    between atoms: _152  and  _153
REMARK   70  A    between atoms: _155  and  _157
REMARK   71  A    between atoms: _157  and  _158
REMARK   72  A    between atoms: _160  and  _162
REMARK   73  A    between atoms: _162  and  _163
REMARK   74  A    between atoms: _162  and  _165
REMARK   75  A    between atoms: _165  and  _166
REMARK   76  A    between atoms: _172  and  _174
REMARK   77  A    between atoms: _174  and  _175
REMARK   78  A    between atoms: _174  and  _177
REMARK   79  A    between atoms: _177  and  _178
REMARK   80  A    between atoms: _181  and  _183
REMARK   81  A    between atoms: _183  and  _184
REMARK   82  A    between atoms: _183  and  _186
REMARK   83  A    between atoms: _186  and  _187
REMARK   84  A    between atoms: _190  and  _192
REMARK   85  A    between atoms: _192  and  _193
REMARK   86  A    between atoms: _192  and  _195
REMARK   87  A    between atoms: _195  and  _196
REMARK   88  A    between atoms: _200  and  _201
REMARK   89  A    between atoms: _206  and  _208
REMARK   90  A    between atoms: _208  and  _209
REMARK   91  A    between atoms: _208  and  _211
REMARK   92  A    between atoms: _214  and  _216
REMARK   93  A    between atoms: _216  and  _217
REMARK   94  A    between atoms: _216  and  _219
REMARK   95  A    between atoms: _219  and  _220
REMARK   96  A    between atoms: _225  and  _227
REMARK   97  A    between atoms: _227  and  _228
REMARK   98  A    between atoms: _227  and  _230
REMARK   99  A    between atoms: _230  and  _231
REMARK  100  A    between atoms: _234  and  _236
REMARK  101  A    between atoms: _236  and  _237
REMARK  102  A    between atoms: _239  and  _241
REMARK  103  A    between atoms: _241  and  _242
REMARK  104  A    between atoms: _241  and  _244
REMARK  105  A    between atoms: _244  and  _245
REMARK  106  A    between atoms: _245  and  _246
REMARK  107  A    between atoms: _246  and  _247
REMARK  108  A    between atoms: _256  and  _258
REMARK  109  A    between atoms: _258  and  _259
REMARK  110  A    between atoms: _258  and  _261
REMARK  111  A    between atoms: _261  and  _262
REMARK  112  A    between atoms: _267  and  _269
REMARK  113  A    between atoms: _269  and  _270
REMARK  114  A    between atoms: _269  and  _272
REMARK  115  A    between atoms: _272  and  _273
REMARK  116  A    between atoms: _273  and  _274
REMARK  117  A    between atoms: _274  and  _275
REMARK  118  A    between atoms: _284  and  _286
REMARK  119  A    between atoms: _286  and  _287
REMARK  120  A    between atoms: _286  and  _289
REMARK  121  A    between atoms: _289  and  _290
REMARK  122  A    between atoms: _293  and  _295
REMARK  123  A    between atoms: _295  and  _296
REMARK  124  A    between atoms: _295  and  _298
REMARK  125  A    between atoms: _298  and  _299
REMARK  126  A    between atoms: _302  and  _304
REMARK  127  A    between atoms: _304  and  _305
REMARK  128  A    between atoms: _304  and  _307
REMARK  129  A    between atoms: _307  and  _308
REMARK  130  A    between atoms: _311  and  _313
REMARK  131  A    between atoms: _313  and  _314
REMARK  132  A    between atoms: _313  and  _316
REMARK  133  A    between atoms: _316  and  _317
REMARK  134  A    between atoms: _320  and  _322
REMARK  135  A    between atoms: _322  and  _323
REMARK  136  A    between atoms: _325  and  _327
REMARK  137  A    between atoms: _327  and  _328
REMARK  138  A    between atoms: _331  and  _333
REMARK  139  A    between atoms: _333  and  _334
REMARK  140  A    between atoms: _333  and  _336
REMARK  141  A    between atoms: _336  and  _337
REMARK  142  A    between atoms: _340  and  _342
REMARK  143  A    between atoms: _342  and  _343
REMARK  144  A    between atoms: _342  and  _345
REMARK  145  A    between atoms: _345  and  _346
REMARK  146  A    between atoms: _349  and  _351
REMARK  147  A    between atoms: _351  and  _352
REMARK  148  A    between atoms: _351  and  _354
REMARK  149  A    between atoms: _354  and  _355
REMARK  150  A    between atoms: _358  and  _360
REMARK  151  A    between atoms: _360  and  _361
REMARK  152  A    between atoms: _360  and  _363
REMARK  153  A    between atoms: _366  and  _368
REMARK  154  A    between atoms: _368  and  _369
REMARK  155  A    between atoms: _368  and  _371
REMARK  156  A    between atoms: _371  and  _372
REMARK  157  A    between atoms: _372  and  _373
REMARK  158  A    between atoms: _373  and  _374
REMARK  159  A    between atoms: _374  and  _375
REMARK  160  A    between atoms: _379  and  _381
REMARK  161  A    between atoms: _381  and  _382
REMARK  162  A    between atoms: _381  and  _384
REMARK  163  A    between atoms: _384  and  _385
REMARK  164  A    between atoms: _385  and  _386
REMARK  165  A    between atoms: _388  and  _390
REMARK  166  A    between atoms: _390  and  _391
REMARK  167  A    between atoms: _390  and  _393
REMARK  168  A    between atoms: _393  and  _394
REMARK  169  A    between atoms: _397  and  _399
REMARK  170  A    between atoms: _399  and  _400
REMARK  171  A    between atoms: _402  and  _404
REMARK  172  A    between atoms: _404  and  _405
REMARK  173  A    between atoms: _407  and  _409
REMARK  174  A    between atoms: _409  and  _410
REMARK  175  A    between atoms: _409  and  _412
REMARK  176  A    between atoms: _412  and  _413
REMARK  177  A    between atoms: _416  and  _418
REMARK  178  A    between atoms: _418  and  _419
REMARK  179  A    between atoms: _421  and  _423
REMARK  180  A    between atoms: _423  and  _424
REMARK  181  A    between atoms: _426  and  _428
REMARK  182  A    between atoms: _428  and  _429
REMARK  183  A    between atoms: _428  and  _431
REMARK  184  A    between atoms: _431  and  _432
REMARK  185  A    between atoms: _438  and  _440
REMARK  186  A    between atoms: _440  and  _441
REMARK  187  A    between atoms: _440  and  _443
REMARK  188  A    between atoms: _443  and  _444
REMARK  189  A    between atoms: _447  and  _449
REMARK  190  A    between atoms: _449  and  _450
REMARK  191  A    between atoms: _449  and  _452
REMARK  192  A    between atoms: _455  and  _457
REMARK  193  A    between atoms: _457  and  _458
REMARK  194  A    between atoms: _457  and  _460
REMARK  195  A    between atoms: _460  and  _461
REMARK  196  A    between atoms: _465  and  _466
REMARK  197  A    between atoms: _471  and  _473
REMARK  198  A    between atoms: _473  and  _474
REMARK  199  A    between atoms: _473  and  _476
REMARK  200  A    between atoms: _476  and  _477
REMARK  201  A    between atoms: _481  and  _482
REMARK  202  A    between atoms: _487  and  _489
REMARK  203  A    between atoms: _489  and  _490
REMARK  204  A    between atoms: _489  and  _492
REMARK  205  A    between atoms: _495  and  _497
REMARK  206  A    between atoms: _497  and  _498
REMARK  207  A    between atoms: _497  and  _500
REMARK  208  A    between atoms: _500  and  _501
REMARK  209  A    between atoms: _506  and  _508
REMARK  210  A    between atoms: _508  and  _509
REMARK  211  A    between atoms: _508  and  _511
REMARK  212  A    between atoms: _511  and  _512
REMARK  213  A    between atoms: _515  and  _517
REMARK  214  A    between atoms: _517  and  _518
REMARK  215  A    between atoms: _517  and  _520
REMARK  216  A    between atoms: _520  and  _521
REMARK  217  A    between atoms: _524  and  _526
REMARK  218  A    between atoms: _526  and  _527
REMARK  219  A    between atoms: _529  and  _531
REMARK  220  A    between atoms: _531  and  _532
REMARK  221  A    between atoms: _531  and  _534
REMARK  222  A    between atoms: _534  and  _535
REMARK  223  A    between atoms: _535  and  _536
REMARK  224  A    between atoms: _536  and  _537
REMARK  225  A    between atoms: _546  and  _548
REMARK  226  A    between atoms: _548  and  _549
REMARK  227  A    between atoms: _548  and  _551
REMARK  228  A    between atoms: _551  and  _552
REMARK                            x       y       z     vdW  Elec       q    Type
REMARK                         _______ _______ _______ _____ _____    ______ ____
ROOT
ATOM      1  O   HOH     1      10.289  20.016  17.680  0.00  0.00    +0.000 OA
ENDROOT
TORSDOF 0
REMARK  Name = ../refined-set-2016/3ok9/3ok9_pocket.pdb
REMARK  228 active torsions:
REMARK  status: ('A' for Active; 'I' for Inactive)
REMARK    1  A    between atoms: _1  and  _3
REMARK    2  A    between atoms: _3  and  _4
REMARK    3  A    between atoms: _3  and  _6
REMARK    4  A    between atoms: _6  and  _7
REMARK    5  A    between atoms: _7  and  _8
REMARK    6  A    between atoms: _8  and  _9
REMARK    7  A    between atoms: _18  and  _20
REMARK    8  A    between atoms: _20  and  _21
REMARK    9  A    between atoms: _20  and  _23
REMARK   10  A    between atoms: _23  and  _24
REMARK   11  A    between atoms: _27  and  _29
REMARK   12  A    between atoms: _29  and  _30
REMARK   13  A    between atoms: _29  and  _32
REMARK   14  A    between atoms: _32  and  _33
REMARK   15  A    between atoms: _36  and  _38
REMARK   16  A    between atoms: _38  and  _39
REMARK   17  A    between atoms: _38  and  _41
REMARK   18  A    between atoms: _41  and  _42
REMARK   19  A    between atoms: _45  and  _47
REMARK   20  A    between atoms: _47  and  _48
REMARK   21  A    between atoms: _47  and  _50
REMARK   22  A    between atoms: _50  and  _51
REMARK   23  A    between atoms: _54  and  _56
REMARK   24  A    between atoms: _56  and  _57
REMARK   25  A    between atoms: _59  and  _61
REMARK   26  A    between atoms: _61  and  _62
REMARK   27  A    between atoms: _65  and  _67
REMARK   28  A    between atoms: _67  and  _68
REMARK   29  A    between atoms: _67  and  _70
REMARK   30  A    between atoms: _70  and  _71
REMARK   31  A    between atoms: _74  and  _76
REMARK   32  A    between atoms: _76  and  _77
REMARK   33  A    between atoms: _76  and  _79
REMARK   34  A    between atoms: _79  and  _80
REMARK   35  A    between atoms: _83  and  _85
REMARK   36  A    between atoms: _85  and  _86
REMARK   37  A    between atoms: _85  and  _88
REMARK   38  A    between atoms: _88  and  _89
REMARK   39  A    between atoms: _92  and  _94
REMARK   40  A    between atoms: _94  and  _95
REMARK   41  A    between atoms: _94  and  _97
REMARK   42  A    between atoms: _100  and  _102
REMARK   43  A    between atoms: _102  and  _103
REMARK   44  A    between atoms: _102  and  _105
REMARK   45  A    between atoms: _105  and  _106
REMARK   46  A    between atoms: _106  and  _107
REMARK   47  A    between atoms: _107  and  _108
REMARK   48  A    between atoms: _108  and  _109
REMARK   49  A    between atoms: _113  and  _115
REMARK   50  A    between atoms: _115  and  _116
REMARK   51  A    between atoms: _115  and  _118
REMARK   52  A    between atoms: _118  and  _119
REMARK   53  A    between atoms: _119  and  _120
REMARK   54  A    between atoms: _122  and  _124
REMARK   55  A    between atoms: _124  and  _125
REMARK   56  A    between atoms: _124  and  _127
REMARK   57  A    between atoms: _127  and  _128
REMARK   58  A    between atoms: _131  and  _133
REMARK   59  A    between atoms: _133  and  _134
REMARK   60  A    between atoms: _136  and  _138
REMARK   61  A    between atoms: _138  and  _139
REMARK   62  A    between atoms: _141  and  _143
REMARK   63  A    between atoms: _143  and  _144
REMARK   64  A    between atoms: _143  and  _146
REMARK   65  A    between atoms: _144  and  _145
REMARK   66  A    between atoms: _144  and  _150
REMARK   67  A    between atoms: _146  and  _147
REMARK   68  A    between atoms: _150  and  _152
REMARK   69  A    between atoms: _152  and  _153
REMARK   70  A    between atoms: _155  and  _157
REMARK   71  A    between atoms: _157  and  _158
REMARK   72  A    between atoms: _160  and  _162
REMARK   73  A    between atoms: _162  and  _163
REMARK   74  A    between atoms: _162  and  _165
REMARK   75  A    between atoms: _165  and  _166
REMARK   76  A    between atoms: _172  and  _174
REMARK   77  A    between atoms: _174  and  _175
REMARK   78  A    between atoms: _174  and  _177
REMARK   79  A    between atoms: _177  and  _178
REMARK   80  A    between atoms: _181  and  _183
REMARK   81  A    between atoms: _183  and  _184
REMARK   82  A    between atoms: _183  and  _186
REMARK   83  A    between atoms: _186  and  _187
REMARK   84  A    between atoms: _190  and  _192
REMARK   85  A    between atoms: _192  and  _193
REMARK   86  A    between atoms: _192  and  _195
REMARK   87  A    between atoms: _195  and  _196
REMARK   88  A    between atoms: _200  and  _201
REMARK   89  A    between atoms: _206  and  _208
REMARK   90  A    between atoms: _208  and  _209
REMARK   91  A    between atoms: _208  and  _211
REMARK   92  A    between atoms: _214  and  _216
REMARK   93  A    between atoms: _216  and  _217
REMARK   94  A    between atoms: _216  and  _219
REMARK   95  A    between atoms: _219  and  _220
REMARK   96  A    between atoms: _225  and  _227
REMARK   97  A    between atoms: _227  and  _228
REMARK   98  A    between atoms: _227  and  _230
REMARK   99  A    between atoms: _230  and  _231
REMARK  100  A    between atoms: _234  and  _236
REMARK  101  A    between atoms: _236  and  _237
REMARK  102  A    between atoms: _239  and  _241
REMARK  103  A    between atoms: _241  and  _242
REMARK  104  A    between atoms: _241  and  _244
REMARK  105  A    between atoms: _244  and  _245
REMARK  106  A    between atoms: _245  and  _246
REMARK  107  A    between atoms: _246  and  _247
REMARK  108  A    between atoms: _256  and  _258
REMARK  109  A    between atoms: _258  and  _259
REMARK  110  A    between atoms: _258  and  _261
REMARK  111  A    between atoms: _261  and  _262
REMARK  112  A    between atoms: _267  and  _269
REMARK  113  A    between atoms: _269  and  _270
REMARK  114  A    between atoms: _269  and  _272
REMARK  115  A    between atoms: _272  and  _273
REMARK  116  A    between atoms: _273  and  _274
REMARK  117  A    between atoms: _274  and  _275
REMARK  118  A    between atoms: _284  and  _286
REMARK  119  A    between atoms: _286  and  _287
REMARK  120  A    between atoms: _286  and  _289
REMARK  121  A    between atoms: _289  and  _290
REMARK  122  A    between atoms: _293  and  _295
REMARK  123  A    between atoms: _295  and  _296
REMARK  124  A    between atoms: _295  and  _298
REMARK  125  A    between atoms: _298  and  _299
REMARK  126  A    between atoms: _302  and  _304
REMARK  127  A    between atoms: _304  and  _305
REMARK  128  A    between atoms: _304  and  _307
REMARK  129  A    between atoms: _307  and  _308
REMARK  130  A    between atoms: _311  and  _313
REMARK  131  A    between atoms: _313  and  _314
REMARK  132  A    between atoms: _313  and  _316
REMARK  133  A    between atoms: _316  and  _317
REMARK  134  A    between atoms: _320  and  _322
REMARK  135  A    between atoms: _322  and  _323
REMARK  136  A    between atoms: _325  and  _327
REMARK  137  A    between atoms: _327  and  _328
REMARK  138  A    between atoms: _331  and  _333
REMARK  139  A    between atoms: _333  and  _334
REMARK  140  A    between atoms: _333  and  _336
REMARK  141  A    between atoms: _336  and  _337
REMARK  142  A    between atoms: _340  and  _342
REMARK  143  A    between atoms: _342  and  _343
REMARK  144  A    between atoms: _342  and  _345
REMARK  145  A    between atoms: _345  and  _346
REMARK  146  A    between atoms: _349  and  _351
REMARK  147  A    between atoms: _351  and  _352
REMARK  148  A    between atoms: _351  and  _354
REMARK  149  A    between atoms: _354  and  _355
REMARK  150  A    between atoms: _358  and  _360
REMARK  151  A    between atoms: _360  and  _361
REMARK  152  A    between atoms: _360  and  _363
REMARK  153  A    between atoms: _366  and  _368
REMARK  154  A    between atoms: _368  and  _369
REMARK  155  A    between atoms: _368  and  _371
REMARK  156  A    between atoms: _371  and  _372
REMARK  157  A    between atoms: _372  and  _373
REMARK  158  A    between atoms: _373  and  _374
REMARK  159  A    between atoms: _374  and  _375
REMARK  160  A    between atoms: _379  and  _381
REMARK  161  A    between atoms: _381  and  _382
REMARK  162  A    between atoms: _381  and  _384
REMARK  163  A    between atoms: _384  and  _385
REMARK  164  A    between atoms: _385  and  _386
REMARK  165  A    between atoms: _388  and  _390
REMARK  166  A    between atoms: _390  and  _391
REMARK  167  A    between atoms: _390  and  _393
REMARK  168  A    between atoms: _393  and  _394
REMARK  169  A    between atoms: _397  and  _399
REMARK  170  A    between atoms: _399  and  _400
REMARK  171  A    between atoms: _402  and  _404
REMARK  172  A    between atoms: _404  and  _405
REMARK  173  A    between atoms: _407  and  _409
REMARK  174  A    between atoms: _409  and  _410
REMARK  175  A    between atoms: _409  and  _412
REMARK  176  A    between atoms: _412  and  _413
REMARK  177  A    between atoms: _416  and  _418
REMARK  178  A    between atoms: _418  and  _419
REMARK  179  A    between atoms: _421  and  _423
REMARK  180  A    between atoms: _423  and  _424
REMARK  181  A    between atoms: _426  and  _428
REMARK  182  A    between atoms: _428  and  _429
REMARK  183  A    between atoms: _428  and  _431
REMARK  184  A    between atoms: _431  and  _432
REMARK  185  A    between atoms: _438  and  _440
REMARK  186  A    between atoms: _440  and  _441
REMARK  187  A    between atoms: _440  and  _443
REMARK  188  A    between atoms: _443  and  _444
REMARK  189  A    between atoms: _447  and  _449
REMARK  190  A    between atoms: _449  and  _450
REMARK  191  A    between atoms: _449  and  _452
REMARK  192  A    between atoms: _455  and  _457
REMARK  193  A    between atoms: _457  and  _458
REMARK  194  A    between atoms: _457  and  _460
REMARK  195  A    between atoms: _460  and  _461
REMARK  196  A    between atoms: _465  and  _466
REMARK  197  A    between atoms: _471  and  _473
REMARK  198  A    between atoms: _473  and  _474
REMARK  199  A    between atoms: _473  and  _476
REMARK  200  A    between atoms: _476  and  _477
REMARK  201  A    between atoms: _481  and  _482
REMARK  202  A    between atoms: _487  and  _489
REMARK  203  A    between atoms: _489  and  _490
REMARK  204  A    between atoms: _489  and  _492
REMARK  205  A    between atoms: _495  and  _497
REMARK  206  A    between atoms: _497  and  _498
REMARK  207  A    between atoms: _497  and  _500
REMARK  208  A    between atoms: _500  and  _501
REMARK  209  A    between atoms: _506  and  _508
REMARK  210  A    between atoms: _508  and  _509
REMARK  211  A    between atoms: _508  and  _511
REMARK  212  A    between atoms: _511  and  _512
REMARK  213  A    between atoms: _515  and  _517
REMARK  214  A    between atoms: _517  and  _518
REMARK  215  A    between atoms: _517  and  _520
REMARK  216  A    between atoms: _520  and  _521
REMARK  217  A    between atoms: _524  and  _526
REMARK  218  A    between atoms: _526  and  _527
REMARK  219  A    between atoms: _529  and  _531
REMARK  220  A    between atoms: _531  and  _532
REMARK  221  A    between atoms: _531  and  _534
REMARK  222  A    between atoms: _534  and  _535
REMARK  223  A    between atoms: _535  and  _536
REMARK  224  A    between atoms: _536  and  _537
REMARK  225  A    between atoms: _546  and  _548
REMARK  226  A    between atoms: _548  and  _549
REMARK  227  A    between atoms: _548  and  _551
REMARK  228  A    between atoms: _551  and  _552
REMARK                            x       y       z     vdW  Elec       q    Type
REMARK                         _______ _______ _______ _____ _____    ______ ____
ROOT
ATOM      1  O   HOH     1      26.897  27.704  20.265  0.00  0.00    +0.000 OA
ENDROOT
TORSDOF 0
REMARK  Name = ../refined-set-2016/3ok9/3ok9_pocket.pdb
REMARK  228 active torsions:
REMARK  status: ('A' for Active; 'I' for Inactive)
REMARK    1  A    between atoms: _1  and  _3
REMARK    2  A    between atoms: _3  and  _4
REMARK    3  A    between atoms: _3  and  _6
REMARK    4  A    between atoms: _6  and  _7
REMARK    5  A    between atoms: _7  and  _8
REMARK    6  A    between atoms: _8  and  _9
REMARK    7  A    between atoms: _18  and  _20
REMARK    8  A    between atoms: _20  and  _21
REMARK    9  A    between atoms: _20  and  _23
REMARK   10  A    between atoms: _23  and  _24
REMARK   11  A    between atoms: _27  and  _29
REMARK   12  A    between atoms: _29  and  _30
REMARK   13  A    between atoms: _29  and  _32
REMARK   14  A    between atoms: _32  and  _33
REMARK   15  A    between atoms: _36  and  _38
REMARK   16  A    between atoms: _38  and  _39
REMARK   17  A    between atoms: _38  and  _41
REMARK   18  A    between atoms: _41  and  _42
REMARK   19  A    between atoms: _45  and  _47
REMARK   20  A    between atoms: _47  and  _48
REMARK   21  A    between atoms: _47  and  _50
REMARK   22  A    between atoms: _50  and  _51
REMARK   23  A    between atoms: _54  and  _56
REMARK   24  A    between atoms: _56  and  _57
REMARK   25  A    between atoms: _59  and  _61
REMARK   26  A    between atoms: _61  and  _62
REMARK   27  A    between atoms: _65  and  _67
REMARK   28  A    between atoms: _67  and  _68
REMARK   29  A    between atoms: _67  and  _70
REMARK   30  A    between atoms: _70  and  _71
REMARK   31  A    between atoms: _74  and  _76
REMARK   32  A    between atoms: _76  and  _77
REMARK   33  A    between atoms: _76  and  _79
REMARK   34  A    between atoms: _79  and  _80
REMARK   35  A    between atoms: _83  and  _85
REMARK   36  A    between atoms: _85  and  _86
REMARK   37  A    between atoms: _85  and  _88
REMARK   38  A    between atoms: _88  and  _89
REMARK   39  A    between atoms: _92  and  _94
REMARK   40  A    between atoms: _94  and  _95
REMARK   41  A    between atoms: _94  and  _97
REMARK   42  A    between atoms: _100  and  _102
REMARK   43  A    between atoms: _102  and  _103
REMARK   44  A    between atoms: _102  and  _105
REMARK   45  A    between atoms: _105  and  _106
REMARK   46  A    between atoms: _106  and  _107
REMARK   47  A    between atoms: _107  and  _108
REMARK   48  A    between atoms: _108  and  _109
REMARK   49  A    between atoms: _113  and  _115
REMARK   50  A    between atoms: _115  and  _116
REMARK   51  A    between atoms: _115  and  _118
REMARK   52  A    between atoms: _118  and  _119
REMARK   53  A    between atoms: _119  and  _120
REMARK   54  A    between atoms: _122  and  _124
REMARK   55  A    between atoms: _124  and  _125
REMARK   56  A    between atoms: _124  and  _127
REMARK   57  A    between atoms: _127  and  _128
REMARK   58  A    between atoms: _131  and  _133
REMARK   59  A    between atoms: _133  and  _134
REMARK   60  A    between atoms: _136  and  _138
REMARK   61  A    between atoms: _138  and  _139
REMARK   62  A    between atoms: _141  and  _143
REMARK   63  A    between atoms: _143  and  _144
REMARK   64  A    between atoms: _143  and  _146
REMARK   65  A    between atoms: _144  and  _145
REMARK   66  A    between atoms: _144  and  _150
REMARK   67  A    between atoms: _146  and  _147
REMARK   68  A    between atoms: _150  and  _152
REMARK   69  A    between atoms: _152  and  _153
REMARK   70  A    between atoms: _155  and  _157
REMARK   71  A    between atoms: _157  and  _158
REMARK   72  A    between atoms: _160  and  _162
REMARK   73  A    between atoms: _162  and  _163
REMARK   74  A    between atoms: _162  and  _165
REMARK   75  A    between atoms: _165  and  _166
REMARK   76  A    between atoms: _172  and  _174
REMARK   77  A    between atoms: _174  and  _175
REMARK   78  A    between atoms: _174  and  _177
REMARK   79  A    between atoms: _177  and  _178
REMARK   80  A    between atoms: _181  and  _183
REMARK   81  A    between atoms: _183  and  _184
REMARK   82  A    between atoms: _183  and  _186
REMARK   83  A    between atoms: _186  and  _187
REMARK   84  A    between atoms: _190  and  _192
REMARK   85  A    between atoms: _192  and  _193
REMARK   86  A    between atoms: _192  and  _195
REMARK   87  A    between atoms: _195  and  _196
REMARK   88  A    between atoms: _200  and  _201
REMARK   89  A    between atoms: _206  and  _208
REMARK   90  A    between atoms: _208  and  _209
REMARK   91  A    between atoms: _208  and  _211
REMARK   92  A    between atoms: _214  and  _216
REMARK   93  A    between atoms: _216  and  _217
REMARK   94  A    between atoms: _216  and  _219
REMARK   95  A    between atoms: _219  and  _220
REMARK   96  A    between atoms: _225  and  _227
REMARK   97  A    between atoms: _227  and  _228
REMARK   98  A    between atoms: _227  and  _230
REMARK   99  A    between atoms: _230  and  _231
REMARK  100  A    between atoms: _234  and  _236
REMARK  101  A    between atoms: _236  and  _237
REMARK  102  A    between atoms: _239  and  _241
REMARK  103  A    between atoms: _241  and  _242
REMARK  104  A    between atoms: _241  and  _244
REMARK  105  A    between atoms: _244  and  _245
REMARK  106  A    between atoms: _245  and  _246
REMARK  107  A    between atoms: _246  and  _247
REMARK  108  A    between atoms: _256  and  _258
REMARK  109  A    between atoms: _258  and  _259
REMARK  110  A    between atoms: _258  and  _261
REMARK  111  A    between atoms: _261  and  _262
REMARK  112  A    between atoms: _267  and  _269
REMARK  113  A    between atoms: _269  and  _270
REMARK  114  A    between atoms: _269  and  _272
REMARK  115  A    between atoms: _272  and  _273
REMARK  116  A    between atoms: _273  and  _274
REMARK  117  A    between atoms: _274  and  _275
REMARK  118  A    between atoms: _284  and  _286
REMARK  119  A    between atoms: _286  and  _287
REMARK  120  A    between atoms: _286  and  _289
REMARK  121  A    between atoms: _289  and  _290
REMARK  122  A    between atoms: _293  and  _295
REMARK  123  A    between atoms: _295  and  _296
REMARK  124  A    between atoms: _295  and  _298
REMARK  125  A    between atoms: _298  and  _299
REMARK  126  A    between atoms: _302  and  _304
REMARK  127  A    between atoms: _304  and  _305
REMARK  128  A    between atoms: _304  and  _307
REMARK  129  A    between atoms: _307  and  _308
REMARK  130  A    between atoms: _311  and  _313
REMARK  131  A    between atoms: _313  and  _314
REMARK  132  A    between atoms: _313  and  _316
REMARK  133  A    between atoms: _316  and  _317
REMARK  134  A    between atoms: _320  and  _322
REMARK  135  A    between atoms: _322  and  _323
REMARK  136  A    between atoms: _325  and  _327
REMARK  137  A    between atoms: _327  and  _328
REMARK  138  A    between atoms: _331  and  _333
REMARK  139  A    between atoms: _333  and  _334
REMARK  140  A    between atoms: _333  and  _336
REMARK  141  A    between atoms: _336  and  _337
REMARK  142  A    between atoms: _340  and  _342
REMARK  143  A    between atoms: _342  and  _343
REMARK  144  A    between atoms: _342  and  _345
REMARK  145  A    between atoms: _345  and  _346
REMARK  146  A    between atoms: _349  and  _351
REMARK  147  A    between atoms: _351  and  _352
REMARK  148  A    between atoms: _351  and  _354
REMARK  149  A    between atoms: _354  and  _355
REMARK  150  A    between atoms: _358  and  _360
REMARK  151  A    between atoms: _360  and  _361
REMARK  152  A    between atoms: _360  and  _363
REMARK  153  A    between atoms: _366  and  _368
REMARK  154  A    between atoms: _368  and  _369
REMARK  155  A    between atoms: _368  and  _371
REMARK  156  A    between atoms: _371  and  _372
REMARK  157  A    between atoms: _372  and  _373
REMARK  158  A    between atoms: _373  and  _374
REMARK  159  A    between atoms: _374  and  _375
REMARK  160  A    between atoms: _379  and  _381
REMARK  161  A    between atoms: _381  and  _382
REMARK  162  A    between atoms: _381  and  _384
REMARK  163  A    between atoms: _384  and  _385
REMARK  164  A    between atoms: _385  and  _386
REMARK  165  A    between atoms: _388  and  _390
REMARK  166  A    between atoms: _390  and  _391
REMARK  167  A    between atoms: _390  and  _393
REMARK  168  A    between atoms: _393  and  _394
REMARK  169  A    between atoms: _397  and  _399
REMARK  170  A    between atoms: _399  and  _400
REMARK  171  A    between atoms: _402  and  _404
REMARK  172  A    between atoms: _404  and  _405
REMARK  173  A    between atoms: _407  and  _409
REMARK  174  A    between atoms: _409  and  _410
REMARK  175  A    between atoms: _409  and  _412
REMARK  176  A    between atoms: _412  and  _413
REMARK  177  A    between atoms: _416  and  _418
REMARK  178  A    between atoms: _418  and  _419
REMARK  179  A    between atoms: _421  and  _423
REMARK  180  A    between atoms: _423  and  _424
REMARK  181  A    between atoms: _426  and  _428
REMARK  182  A    between atoms: _428  and  _429
REMARK  183  A    between atoms: _428  and  _431
REMARK  184  A    between atoms: _431  and  _432
REMARK  185  A    between atoms: _438  and  _440
REMARK  186  A    between atoms: _440  and  _441
REMARK  187  A    between atoms: _440  and  _443
REMARK  188  A    between atoms: _443  and  _444
REMARK  189  A    between atoms: _447  and  _449
REMARK  190  A    between atoms: _449  and  _450
REMARK  191  A    between atoms: _449  and  _452
REMARK  192  A    between atoms: _455  and  _457
REMARK  193  A    between atoms: _457  and  _458
REMARK  194  A    between atoms: _457  and  _460
REMARK  195  A    between atoms: _460  and  _461
REMARK  196  A    between atoms: _465  and  _466
REMARK  197  A    between atoms: _471  and  _473
REMARK  198  A    between atoms: _473  and  _474
REMARK  199  A    between atoms: _473  and  _476
REMARK  200  A    between atoms: _476  and  _477
REMARK  201  A    between atoms: _481  and  _482
REMARK  202  A    between atoms: _487  and  _489
REMARK  203  A    between atoms: _489  and  _490
REMARK  204  A    between atoms: _489  and  _492
REMARK  205  A    between atoms: _495  and  _497
REMARK  206  A    between atoms: _497  and  _498
REMARK  207  A    between atoms: _497  and  _500
REMARK  208  A    between atoms: _500  and  _501
REMARK  209  A    between atoms: _506  and  _508
REMARK  210  A    between atoms: _508  and  _509
REMARK  211  A    between atoms: _508  and  _511
REMARK  212  A    between atoms: _511  and  _512
REMARK  213  A    between atoms: _515  and  _517
REMARK  214  A    between atoms: _517  and  _518
REMARK  215  A    between atoms: _517  and  _520
REMARK  216  A    between atoms: _520  and  _521
REMARK  217  A    between atoms: _524  and  _526
REMARK  218  A    between atoms: _526  and  _527
REMARK  219  A    between atoms: _529  and  _531
REMARK  220  A    between atoms: _531  and  _532
REMARK  221  A    between atoms: _531  and  _534
REMARK  222  A    between atoms: _534  and  _535
REMARK  223  A    between atoms: _535  and  _536
REMARK  224  A    between atoms: _536  and  _537
REMARK  225  A    between atoms: _546  and  _548
REMARK  226  A    between atoms: _548  and  _549
REMARK  227  A    between atoms: _548  and  _551
REMARK  228  A    between atoms: _551  and  _552
REMARK                            x       y       z     vdW  Elec       q    Type
REMARK                         _______ _______ _______ _____ _____    ______ ____
ROOT
ATOM      1  O   HOH     1      23.452  27.888  26.115  0.00  0.00    +0.000 OA
ENDROOT
TORSDOF 0
REMARK  Name = ../refined-set-2016/3ok9/3ok9_pocket.pdb
REMARK  228 active torsions:
REMARK  status: ('A' for Active; 'I' for Inactive)
REMARK    1  A    between atoms: _1  and  _3
REMARK    2  A    between atoms: _3  and  _4
REMARK    3  A    between atoms: _3  and  _6
REMARK    4  A    between atoms: _6  and  _7
REMARK    5  A    between atoms: _7  and  _8
REMARK    6  A    between atoms: _8  and  _9
REMARK    7  A    between atoms: _18  and  _20
REMARK    8  A    between atoms: _20  and  _21
REMARK    9  A    between atoms: _20  and  _23
REMARK   10  A    between atoms: _23  and  _24
REMARK   11  A    between atoms: _27  and  _29
REMARK   12  A    between atoms: _29  and  _30
REMARK   13  A    between atoms: _29  and  _32
REMARK   14  A    between atoms: _32  and  _33
REMARK   15  A    between atoms: _36  and  _38
REMARK   16  A    between atoms: _38  and  _39
REMARK   17  A    between atoms: _38  and  _41
REMARK   18  A    between atoms: _41  and  _42
REMARK   19  A    between atoms: _45  and  _47
REMARK   20  A    between atoms: _47  and  _48
REMARK   21  A    between atoms: _47  and  _50
REMARK   22  A    between atoms: _50  and  _51
REMARK   23  A    between atoms: _54  and  _56
REMARK   24  A    between atoms: _56  and  _57
REMARK   25  A    between atoms: _59  and  _61
REMARK   26  A    between atoms: _61  and  _62
REMARK   27  A    between atoms: _65  and  _67
REMARK   28  A    between atoms: _67  and  _68
REMARK   29  A    between atoms: _67  and  _70
REMARK   30  A    between atoms: _70  and  _71
REMARK   31  A    between atoms: _74  and  _76
REMARK   32  A    between atoms: _76  and  _77
REMARK   33  A    between atoms: _76  and  _79
REMARK   34  A    between atoms: _79  and  _80
REMARK   35  A    between atoms: _83  and  _85
REMARK   36  A    between atoms: _85  and  _86
REMARK   37  A    between atoms: _85  and  _88
REMARK   38  A    between atoms: _88  and  _89
REMARK   39  A    between atoms: _92  and  _94
REMARK   40  A    between atoms: _94  and  _95
REMARK   41  A    between atoms: _94  and  _97
REMARK   42  A    between atoms: _100  and  _102
REMARK   43  A    between atoms: _102  and  _103
REMARK   44  A    between atoms: _102  and  _105
REMARK   45  A    between atoms: _105  and  _106
REMARK   46  A    between atoms: _106  and  _107
REMARK   47  A    between atoms: _107  and  _108
REMARK   48  A    between atoms: _108  and  _109
REMARK   49  A    between atoms: _113  and  _115
REMARK   50  A    between atoms: _115  and  _116
REMARK   51  A    between atoms: _115  and  _118
REMARK   52  A    between atoms: _118  and  _119
REMARK   53  A    between atoms: _119  and  _120
REMARK   54  A    between atoms: _122  and  _124
REMARK   55  A    between atoms: _124  and  _125
REMARK   56  A    between atoms: _124  and  _127
REMARK   57  A    between atoms: _127  and  _128
REMARK   58  A    between atoms: _131  and  _133
REMARK   59  A    between atoms: _133  and  _134
REMARK   60  A    between atoms: _136  and  _138
REMARK   61  A    between atoms: _138  and  _139
REMARK   62  A    between atoms: _141  and  _143
REMARK   63  A    between atoms: _143  and  _144
REMARK   64  A    between atoms: _143  and  _146
REMARK   65  A    between atoms: _144  and  _145
REMARK   66  A    between atoms: _144  and  _150
REMARK   67  A    between atoms: _146  and  _147
REMARK   68  A    between atoms: _150  and  _152
REMARK   69  A    between atoms: _152  and  _153
REMARK   70  A    between atoms: _155  and  _157
REMARK   71  A    between atoms: _157  and  _158
REMARK   72  A    between atoms: _160  and  _162
REMARK   73  A    between atoms: _162  and  _163
REMARK   74  A    between atoms: _162  and  _165
REMARK   75  A    between atoms: _165  and  _166
REMARK   76  A    between atoms: _172  and  _174
REMARK   77  A    between atoms: _174  and  _175
REMARK   78  A    between atoms: _174  and  _177
REMARK   79  A    between atoms: _177  and  _178
REMARK   80  A    between atoms: _181  and  _183
REMARK   81  A    between atoms: _183  and  _184
REMARK   82  A    between atoms: _183  and  _186
REMARK   83  A    between atoms: _186  and  _187
REMARK   84  A    between atoms: _190  and  _192
REMARK   85  A    between atoms: _192  and  _193
REMARK   86  A    between atoms: _192  and  _195
REMARK   87  A    between atoms: _195  and  _196
REMARK   88  A    between atoms: _200  and  _201
REMARK   89  A    between atoms: _206  and  _208
REMARK   90  A    between atoms: _208  and  _209
REMARK   91  A    between atoms: _208  and  _211
REMARK   92  A    between atoms: _214  and  _216
REMARK   93  A    between atoms: _216  and  _217
REMARK   94  A    between atoms: _216  and  _219
REMARK   95  A    between atoms: _219  and  _220
REMARK   96  A    between atoms: _225  and  _227
REMARK   97  A    between atoms: _227  and  _228
REMARK   98  A    between atoms: _227  and  _230
REMARK   99  A    between atoms: _230  and  _231
REMARK  100  A    between atoms: _234  and  _236
REMARK  101  A    between atoms: _236  and  _237
REMARK  102  A    between atoms: _239  and  _241
REMARK  103  A    between atoms: _241  and  _242
REMARK  104  A    between atoms: _241  and  _244
REMARK  105  A    between atoms: _244  and  _245
REMARK  106  A    between atoms: _245  and  _246
REMARK  107  A    between atoms: _246  and  _247
REMARK  108  A    between atoms: _256  and  _258
REMARK  109  A    between atoms: _258  and  _259
REMARK  110  A    between atoms: _258  and  _261
REMARK  111  A    between atoms: _261  and  _262
REMARK  112  A    between atoms: _267  and  _269
REMARK  113  A    between atoms: _269  and  _270
REMARK  114  A    between atoms: _269  and  _272
REMARK  115  A    between atoms: _272  and  _273
REMARK  116  A    between atoms: _273  and  _274
REMARK  117  A    between atoms: _274  and  _275
REMARK  118  A    between atoms: _284  and  _286
REMARK  119  A    between atoms: _286  and  _287
REMARK  120  A    between atoms: _286  and  _289
REMARK  121  A    between atoms: _289  and  _290
REMARK  122  A    between atoms: _293  and  _295
REMARK  123  A    between atoms: _295  and  _296
REMARK  124  A    between atoms: _295  and  _298
REMARK  125  A    between atoms: _298  and  _299
REMARK  126  A    between atoms: _302  and  _304
REMARK  127  A    between atoms: _304  and  _305
REMARK  128  A    between atoms: _304  and  _307
REMARK  129  A    between atoms: _307  and  _308
REMARK  130  A    between atoms: _311  and  _313
REMARK  131  A    between atoms: _313  and  _314
REMARK  132  A    between atoms: _313  and  _316
REMARK  133  A    between atoms: _316  and  _317
REMARK  134  A    between atoms: _320  and  _322
REMARK  135  A    between atoms: _322  and  _323
REMARK  136  A    between atoms: _325  and  _327
REMARK  137  A    between atoms: _327  and  _328
REMARK  138  A    between atoms: _331  and  _333
REMARK  139  A    between atoms: _333  and  _334
REMARK  140  A    between atoms: _333  and  _336
REMARK  141  A    between atoms: _336  and  _337
REMARK  142  A    between atoms: _340  and  _342
REMARK  143  A    between atoms: _342  and  _343
REMARK  144  A    between atoms: _342  and  _345
REMARK  145  A    between atoms: _345  and  _346
REMARK  146  A    between atoms: _349  and  _351
REMARK  147  A    between atoms: _351  and  _352
REMARK  148  A    between atoms: _351  and  _354
REMARK  149  A    between atoms: _354  and  _355
REMARK  150  A    between atoms: _358  and  _360
REMARK  151  A    between atoms: _360  and  _361
REMARK  152  A    between atoms: _360  and  _363
REMARK  153  A    between atoms: _366  and  _368
REMARK  154  A    between atoms: _368  and  _369
REMARK  155  A    between atoms: _368  and  _371
REMARK  156  A    between atoms: _371  and  _372
REMARK  157  A    between atoms: _372  and  _373
REMARK  158  A    between atoms: _373  and  _374
REMARK  159  A    between atoms: _374  and  _375
REMARK  160  A    between atoms: _379  and  _381
REMARK  161  A    between atoms: _381  and  _382
REMARK  162  A    between atoms: _381  and  _384
REMARK  163  A    between atoms: _384  and  _385
REMARK  164  A    between atoms: _385  and  _386
REMARK  165  A    between atoms: _388  and  _390
REMARK  166  A    between atoms: _390  and  _391
REMARK  167  A    between atoms: _390  and  _393
REMARK  168  A    between atoms: _393  and  _394
REMARK  169  A    between atoms: _397  and  _399
REMARK  170  A    between atoms: _399  and  _400
REMARK  171  A    between atoms: _402  and  _404
REMARK  172  A    between atoms: _404  and  _405
REMARK  173  A    between atoms: _407  and  _409
REMARK  174  A    between atoms: _409  and  _410
REMARK  175  A    between atoms: _409  and  _412
REMARK  176  A    between atoms: _412  and  _413
REMARK  177  A    between atoms: _416  and  _418
REMARK  178  A    between atoms: _418  and  _419
REMARK  179  A    between atoms: _421  and  _423
REMARK  180  A    between atoms: _423  and  _424
REMARK  181  A    between atoms: _426  and  _428
REMARK  182  A    between atoms: _428  and  _429
REMARK  183  A    between atoms: _428  and  _431
REMARK  184  A    between atoms: _431  and  _432
REMARK  185  A    between atoms: _438  and  _440
REMARK  186  A    between atoms: _440  and  _441
REMARK  187  A    between atoms: _440  and  _443
REMARK  188  A    between atoms: _443  and  _444
REMARK  189  A    between atoms: _447  and  _449
REMARK  190  A    between atoms: _449  and  _450
REMARK  191  A    between atoms: _449  and  _452
REMARK  192  A    between atoms: _455  and  _457
REMARK  193  A    between atoms: _457  and  _458
REMARK  194  A    between atoms: _457  and  _460
REMARK  195  A    between atoms: _460  and  _461
REMARK  196  A    between atoms: _465  and  _466
REMARK  197  A    between atoms: _471  and  _473
REMARK  198  A    between atoms: _473  and  _474
REMARK  199  A    between atoms: _473  and  _476
REMARK  200  A    between atoms: _476  and  _477
REMARK  201  A    between atoms: _481  and  _482
REMARK  202  A    between atoms: _487  and  _489
REMARK  203  A    between atoms: _489  and  _490
REMARK  204  A    between atoms: _489  and  _492
REMARK  205  A    between atoms: _495  and  _497
REMARK  206  A    between atoms: _497  and  _498
REMARK  207  A    between atoms: _497  and  _500
REMARK  208  A    between atoms: _500  and  _501
REMARK  209  A    between atoms: _506  and  _508
REMARK  210  A    between atoms: _508  and  _509
REMARK  211  A    between atoms: _508  and  _511
REMARK  212  A    between atoms: _511  and  _512
REMARK  213  A    between atoms: _515  and  _517
REMARK  214  A    between atoms: _517  and  _518
REMARK  215  A    between atoms: _517  and  _520
REMARK  216  A    between atoms: _520  and  _521
REMARK  217  A    between atoms: _524  and  _526
REMARK  218  A    between atoms: _526  and  _527
REMARK  219  A    between atoms: _529  and  _531
REMARK  220  A    between atoms: _531  and  _532
REMARK  221  A    between atoms: _531  and  _534
REMARK  222  A    between atoms: _534  and  _535
REMARK  223  A    between atoms: _535  and  _536
REMARK  224  A    between atoms: _536  and  _537
REMARK  225  A    between atoms: _546  and  _548
REMARK  226  A    between atoms: _548  and  _549
REMARK  227  A    between atoms: _548  and  _551
REMARK  228  A    between atoms: _551  and  _552
REMARK                            x       y       z     vdW  Elec       q    Type
REMARK                         _______ _______ _______ _____ _____    ______ ____
ROOT
ATOM      1  O   HOH     1      12.758  18.808  13.155  0.00  0.00    +0.000 OA
ENDROOT
TORSDOF 0
REMARK  Name = ../refined-set-2016/3ok9/3ok9_pocket.pdb
REMARK  228 active torsions:
REMARK  status: ('A' for Active; 'I' for Inactive)
REMARK    1  A    between atoms: _1  and  _3
REMARK    2  A    between atoms: _3  and  _4
REMARK    3  A    between atoms: _3  and  _6
REMARK    4  A    between atoms: _6  and  _7
REMARK    5  A    between atoms: _7  and  _8
REMARK    6  A    between atoms: _8  and  _9
REMARK    7  A    between atoms: _18  and  _20
REMARK    8  A    between atoms: _20  and  _21
REMARK    9  A    between atoms: _20  and  _23
REMARK   10  A    between atoms: _23  and  _24
REMARK   11  A    between atoms: _27  and  _29
REMARK   12  A    between atoms: _29  and  _30
REMARK   13  A    between atoms: _29  and  _32
REMARK   14  A    between atoms: _32  and  _33
REMARK   15  A    between atoms: _36  and  _38
REMARK   16  A    between atoms: _38  and  _39
REMARK   17  A    between atoms: _38  and  _41
REMARK   18  A    between atoms: _41  and  _42
REMARK   19  A    between atoms: _45  and  _47
REMARK   20  A    between atoms: _47  and  _48
REMARK   21  A    between atoms: _47  and  _50
REMARK   22  A    between atoms: _50  and  _51
REMARK   23  A    between atoms: _54  and  _56
REMARK   24  A    between atoms: _56  and  _57
REMARK   25  A    between atoms: _59  and  _61
REMARK   26  A    between atoms: _61  and  _62
REMARK   27  A    between atoms: _65  and  _67
REMARK   28  A    between atoms: _67  and  _68
REMARK   29  A    between atoms: _67  and  _70
REMARK   30  A    between atoms: _70  and  _71
REMARK   31  A    between atoms: _74  and  _76
REMARK   32  A    between atoms: _76  and  _77
REMARK   33  A    between atoms: _76  and  _79
REMARK   34  A    between atoms: _79  and  _80
REMARK   35  A    between atoms: _83  and  _85
REMARK   36  A    between atoms: _85  and  _86
REMARK   37  A    between atoms: _85  and  _88
REMARK   38  A    between atoms: _88  and  _89
REMARK   39  A    between atoms: _92  and  _94
REMARK   40  A    between atoms: _94  and  _95
REMARK   41  A    between atoms: _94  and  _97
REMARK   42  A    between atoms: _100  and  _102
REMARK   43  A    between atoms: _102  and  _103
REMARK   44  A    between atoms: _102  and  _105
REMARK   45  A    between atoms: _105  and  _106
REMARK   46  A    between atoms: _106  and  _107
REMARK   47  A    between atoms: _107  and  _108
REMARK   48  A    between atoms: _108  and  _109
REMARK   49  A    between atoms: _113  and  _115
REMARK   50  A    between atoms: _115  and  _116
REMARK   51  A    between atoms: _115  and  _118
REMARK   52  A    between atoms: _118  and  _119
REMARK   53  A    between atoms: _119  and  _120
REMARK   54  A    between atoms: _122  and  _124
REMARK   55  A    between atoms: _124  and  _125
REMARK   56  A    between atoms: _124  and  _127
REMARK   57  A    between atoms: _127  and  _128
REMARK   58  A    between atoms: _131  and  _133
REMARK   59  A    between atoms: _133  and  _134
REMARK   60  A    between atoms: _136  and  _138
REMARK   61  A    between atoms: _138  and  _139
REMARK   62  A    between atoms: _141  and  _143
REMARK   63  A    between atoms: _143  and  _144
REMARK   64  A    between atoms: _143  and  _146
REMARK   65  A    between atoms: _144  and  _145
REMARK   66  A    between atoms: _144  and  _150
REMARK   67  A    between atoms: _146  and  _147
REMARK   68  A    between atoms: _150  and  _152
REMARK   69  A    between atoms: _152  and  _153
REMARK   70  A    between atoms: _155  and  _157
REMARK   71  A    between atoms: _157  and  _158
REMARK   72  A    between atoms: _160  and  _162
REMARK   73  A    between atoms: _162  and  _163
REMARK   74  A    between atoms: _162  and  _165
REMARK   75  A    between atoms: _165  and  _166
REMARK   76  A    between atoms: _172  and  _174
REMARK   77  A    between atoms: _174  and  _175
REMARK   78  A    between atoms: _174  and  _177
REMARK   79  A    between atoms: _177  and  _178
REMARK   80  A    between atoms: _181  and  _183
REMARK   81  A    between atoms: _183  and  _184
REMARK   82  A    between atoms: _183  and  _186
REMARK   83  A    between atoms: _186  and  _187
REMARK   84  A    between atoms: _190  and  _192
REMARK   85  A    between atoms: _192  and  _193
REMARK   86  A    between atoms: _192  and  _195
REMARK   87  A    between atoms: _195  and  _196
REMARK   88  A    between atoms: _200  and  _201
REMARK   89  A    between atoms: _206  and  _208
REMARK   90  A    between atoms: _208  and  _209
REMARK   91  A    between atoms: _208  and  _211
REMARK   92  A    between atoms: _214  and  _216
REMARK   93  A    between atoms: _216  and  _217
REMARK   94  A    between atoms: _216  and  _219
REMARK   95  A    between atoms: _219  and  _220
REMARK   96  A    between atoms: _225  and  _227
REMARK   97  A    between atoms: _227  and  _228
REMARK   98  A    between atoms: _227  and  _230
REMARK   99  A    between atoms: _230  and  _231
REMARK  100  A    between atoms: _234  and  _236
REMARK  101  A    between atoms: _236  and  _237
REMARK  102  A    between atoms: _239  and  _241
REMARK  103  A    between atoms: _241  and  _242
REMARK  104  A    between atoms: _241  and  _244
REMARK  105  A    between atoms: _244  and  _245
REMARK  106  A    between atoms: _245  and  _246
REMARK  107  A    between atoms: _246  and  _247
REMARK  108  A    between atoms: _256  and  _258
REMARK  109  A    between atoms: _258  and  _259
REMARK  110  A    between atoms: _258  and  _261
REMARK  111  A    between atoms: _261  and  _262
REMARK  112  A    between atoms: _267  and  _269
REMARK  113  A    between atoms: _269  and  _270
REMARK  114  A    between atoms: _269  and  _272
REMARK  115  A    between atoms: _272  and  _273
REMARK  116  A    between atoms: _273  and  _274
REMARK  117  A    between atoms: _274  and  _275
REMARK  118  A    between atoms: _284  and  _286
REMARK  119  A    between atoms: _286  and  _287
REMARK  120  A    between atoms: _286  and  _289
REMARK  121  A    between atoms: _289  and  _290
REMARK  122  A    between atoms: _293  and  _295
REMARK  123  A    between atoms: _295  and  _296
REMARK  124  A    between atoms: _295  and  _298
REMARK  125  A    between atoms: _298  and  _299
REMARK  126  A    between atoms: _302  and  _304
REMARK  127  A    between atoms: _304  and  _305
REMARK  128  A    between atoms: _304  and  _307
REMARK  129  A    between atoms: _307  and  _308
REMARK  130  A    between atoms: _311  and  _313
REMARK  131  A    between atoms: _313  and  _314
REMARK  132  A    between atoms: _313  and  _316
REMARK  133  A    between atoms: _316  and  _317
REMARK  134  A    between atoms: _320  and  _322
REMARK  135  A    between atoms: _322  and  _323
REMARK  136  A    between atoms: _325  and  _327
REMARK  137  A    between atoms: _327  and  _328
REMARK  138  A    between atoms: _331  and  _333
REMARK  139  A    between atoms: _333  and  _334
REMARK  140  A    between atoms: _333  and  _336
REMARK  141  A    between atoms: _336  and  _337
REMARK  142  A    between atoms: _340  and  _342
REMARK  143  A    between atoms: _342  and  _343
REMARK  144  A    between atoms: _342  and  _345
REMARK  145  A    between atoms: _345  and  _346
REMARK  146  A    between atoms: _349  and  _351
REMARK  147  A    between atoms: _351  and  _352
REMARK  148  A    between atoms: _351  and  _354
REMARK  149  A    between atoms: _354  and  _355
REMARK  150  A    between atoms: _358  and  _360
REMARK  151  A    between atoms: _360  and  _361
REMARK  152  A    between atoms: _360  and  _363
REMARK  153  A    between atoms: _366  and  _368
REMARK  154  A    between atoms: _368  and  _369
REMARK  155  A    between atoms: _368  and  _371
REMARK  156  A    between atoms: _371  and  _372
REMARK  157  A    between atoms: _372  and  _373
REMARK  158  A    between atoms: _373  and  _374
REMARK  159  A    between atoms: _374  and  _375
REMARK  160  A    between atoms: _379  and  _381
REMARK  161  A    between atoms: _381  and  _382
REMARK  162  A    between atoms: _381  and  _384
REMARK  163  A    between atoms: _384  and  _385
REMARK  164  A    between atoms: _385  and  _386
REMARK  165  A    between atoms: _388  and  _390
REMARK  166  A    between atoms: _390  and  _391
REMARK  167  A    between atoms: _390  and  _393
REMARK  168  A    between atoms: _393  and  _394
REMARK  169  A    between atoms: _397  and  _399
REMARK  170  A    between atoms: _399  and  _400
REMARK  171  A    between atoms: _402  and  _404
REMARK  172  A    between atoms: _404  and  _405
REMARK  173  A    between atoms: _407  and  _409
REMARK  174  A    between atoms: _409  and  _410
REMARK  175  A    between atoms: _409  and  _412
REMARK  176  A    between atoms: _412  and  _413
REMARK  177  A    between atoms: _416  and  _418
REMARK  178  A    between atoms: _418  and  _419
REMARK  179  A    between atoms: _421  and  _423
REMARK  180  A    between atoms: _423  and  _424
REMARK  181  A    between atoms: _426  and  _428
REMARK  182  A    between atoms: _428  and  _429
REMARK  183  A    between atoms: _428  and  _431
REMARK  184  A    between atoms: _431  and  _432
REMARK  185  A    between atoms: _438  and  _440
REMARK  186  A    between atoms: _440  and  _441
REMARK  187  A    between atoms: _440  and  _443
REMARK  188  A    between atoms: _443  and  _444
REMARK  189  A    between atoms: _447  and  _449
REMARK  190  A    between atoms: _449  and  _450
REMARK  191  A    between atoms: _449  and  _452
REMARK  192  A    between atoms: _455  and  _457
REMARK  193  A    between atoms: _457  and  _458
REMARK  194  A    between atoms: _457  and  _460
REMARK  195  A    between atoms: _460  and  _461
REMARK  196  A    between atoms: _465  and  _466
REMARK  197  A    between atoms: _471  and  _473
REMARK  198  A    between atoms: _473  and  _474
REMARK  199  A    between atoms: _473  and  _476
REMARK  200  A    between atoms: _476  and  _477
REMARK  201  A    between atoms: _481  and  _482
REMARK  202  A    between atoms: _487  and  _489
REMARK  203  A    between atoms: _489  and  _490
REMARK  204  A    between atoms: _489  and  _492
REMARK  205  A    between atoms: _495  and  _497
REMARK  206  A    between atoms: _497  and  _498
REMARK  207  A    between atoms: _497  and  _500
REMARK  208  A    between atoms: _500  and  _501
REMARK  209  A    between atoms: _506  and  _508
REMARK  210  A    between atoms: _508  and  _509
REMARK  211  A    between atoms: _508  and  _511
REMARK  212  A    between atoms: _511  and  _512
REMARK  213  A    between atoms: _515  and  _517
REMARK  214  A    between atoms: _517  and  _518
REMARK  215  A    between atoms: _517  and  _520
REMARK  216  A    between atoms: _520  and  _521
REMARK  217  A    between atoms: _524  and  _526
REMARK  218  A    between atoms: _526  and  _527
REMARK  219  A    between atoms: _529  and  _531
REMARK  220  A    between atoms: _531  and  _532
REMARK  221  A    between atoms: _531  and  _534
REMARK  222  A    between atoms: _534  and  _535
REMARK  223  A    between atoms: _535  and  _536
REMARK  224  A    between atoms: _536  and  _537
REMARK  225  A    between atoms: _546  and  _548
REMARK  226  A    between atoms: _548  and  _549
REMARK  227  A    between atoms: _548  and  _551
REMARK  228  A    between atoms: _551  and  _552
REMARK                            x       y       z     vdW  Elec       q    Type
REMARK                         _______ _______ _______ _____ _____    ______ ____
ROOT
ATOM      1  O   HOH     1      18.292  30.889  21.504  0.00  0.00    +0.000 OA
ENDROOT
TORSDOF 0
REMARK  Name = ../refined-set-2016/3ok9/3ok9_pocket.pdb
REMARK  228 active torsions:
REMARK  status: ('A' for Active; 'I' for Inactive)
REMARK    1  A    between atoms: _1  and  _3
REMARK    2  A    between atoms: _3  and  _4
REMARK    3  A    between atoms: _3  and  _6
REMARK    4  A    between atoms: _6  and  _7
REMARK    5  A    between atoms: _7  and  _8
REMARK    6  A    between atoms: _8  and  _9
REMARK    7  A    between atoms: _18  and  _20
REMARK    8  A    between atoms: _20  and  _21
REMARK    9  A    between atoms: _20  and  _23
REMARK   10  A    between atoms: _23  and  _24
REMARK   11  A    between atoms: _27  and  _29
REMARK   12  A    between atoms: _29  and  _30
REMARK   13  A    between atoms: _29  and  _32
REMARK   14  A    between atoms: _32  and  _33
REMARK   15  A    between atoms: _36  and  _38
REMARK   16  A    between atoms: _38  and  _39
REMARK   17  A    between atoms: _38  and  _41
REMARK   18  A    between atoms: _41  and  _42
REMARK   19  A    between atoms: _45  and  _47
REMARK   20  A    between atoms: _47  and  _48
REMARK   21  A    between atoms: _47  and  _50
REMARK   22  A    between atoms: _50  and  _51
REMARK   23  A    between atoms: _54  and  _56
REMARK   24  A    between atoms: _56  and  _57
REMARK   25  A    between atoms: _59  and  _61
REMARK   26  A    between atoms: _61  and  _62
REMARK   27  A    between atoms: _65  and  _67
REMARK   28  A    between atoms: _67  and  _68
REMARK   29  A    between atoms: _67  and  _70
REMARK   30  A    between atoms: _70  and  _71
REMARK   31  A    between atoms: _74  and  _76
REMARK   32  A    between atoms: _76  and  _77
REMARK   33  A    between atoms: _76  and  _79
REMARK   34  A    between atoms: _79  and  _80
REMARK   35  A    between atoms: _83  and  _85
REMARK   36  A    between atoms: _85  and  _86
REMARK   37  A    between atoms: _85  and  _88
REMARK   38  A    between atoms: _88  and  _89
REMARK   39  A    between atoms: _92  and  _94
REMARK   40  A    between atoms: _94  and  _95
REMARK   41  A    between atoms: _94  and  _97
REMARK   42  A    between atoms: _100  and  _102
REMARK   43  A    between atoms: _102  and  _103
REMARK   44  A    between atoms: _102  and  _105
REMARK   45  A    between atoms: _105  and  _106
REMARK   46  A    between atoms: _106  and  _107
REMARK   47  A    between atoms: _107  and  _108
REMARK   48  A    between atoms: _108  and  _109
REMARK   49  A    between atoms: _113  and  _115
REMARK   50  A    between atoms: _115  and  _116
REMARK   51  A    between atoms: _115  and  _118
REMARK   52  A    between atoms: _118  and  _119
REMARK   53  A    between atoms: _119  and  _120
REMARK   54  A    between atoms: _122  and  _124
REMARK   55  A    between atoms: _124  and  _125
REMARK   56  A    between atoms: _124  and  _127
REMARK   57  A    between atoms: _127  and  _128
REMARK   58  A    between atoms: _131  and  _133
REMARK   59  A    between atoms: _133  and  _134
REMARK   60  A    between atoms: _136  and  _138
REMARK   61  A    between atoms: _138  and  _139
REMARK   62  A    between atoms: _141  and  _143
REMARK   63  A    between atoms: _143  and  _144
REMARK   64  A    between atoms: _143  and  _146
REMARK   65  A    between atoms: _144  and  _145
REMARK   66  A    between atoms: _144  and  _150
REMARK   67  A    between atoms: _146  and  _147
REMARK   68  A    between atoms: _150  and  _152
REMARK   69  A    between atoms: _152  and  _153
REMARK   70  A    between atoms: _155  and  _157
REMARK   71  A    between atoms: _157  and  _158
REMARK   72  A    between atoms: _160  and  _162
REMARK   73  A    between atoms: _162  and  _163
REMARK   74  A    between atoms: _162  and  _165
REMARK   75  A    between atoms: _165  and  _166
REMARK   76  A    between atoms: _172  and  _174
REMARK   77  A    between atoms: _174  and  _175
REMARK   78  A    between atoms: _174  and  _177
REMARK   79  A    between atoms: _177  and  _178
REMARK   80  A    between atoms: _181  and  _183
REMARK   81  A    between atoms: _183  and  _184
REMARK   82  A    between atoms: _183  and  _186
REMARK   83  A    between atoms: _186  and  _187
REMARK   84  A    between atoms: _190  and  _192
REMARK   85  A    between atoms: _192  and  _193
REMARK   86  A    between atoms: _192  and  _195
REMARK   87  A    between atoms: _195  and  _196
REMARK   88  A    between atoms: _200  and  _201
REMARK   89  A    between atoms: _206  and  _208
REMARK   90  A    between atoms: _208  and  _209
REMARK   91  A    between atoms: _208  and  _211
REMARK   92  A    between atoms: _214  and  _216
REMARK   93  A    between atoms: _216  and  _217
REMARK   94  A    between atoms: _216  and  _219
REMARK   95  A    between atoms: _219  and  _220
REMARK   96  A    between atoms: _225  and  _227
REMARK   97  A    between atoms: _227  and  _228
REMARK   98  A    between atoms: _227  and  _230
REMARK   99  A    between atoms: _230  and  _231
REMARK  100  A    between atoms: _234  and  _236
REMARK  101  A    between atoms: _236  and  _237
REMARK  102  A    between atoms: _239  and  _241
REMARK  103  A    between atoms: _241  and  _242
REMARK  104  A    between atoms: _241  and  _244
REMARK  105  A    between atoms: _244  and  _245
REMARK  106  A    between atoms: _245  and  _246
REMARK  107  A    between atoms: _246  and  _247
REMARK  108  A    between atoms: _256  and  _258
REMARK  109  A    between atoms: _258  and  _259
REMARK  110  A    between atoms: _258  and  _261
REMARK  111  A    between atoms: _261  and  _262
REMARK  112  A    between atoms: _267  and  _269
REMARK  113  A    between atoms: _269  and  _270
REMARK  114  A    between atoms: _269  and  _272
REMARK  115  A    between atoms: _272  and  _273
REMARK  116  A    between atoms: _273  and  _274
REMARK  117  A    between atoms: _274  and  _275
REMARK  118  A    between atoms: _284  and  _286
REMARK  119  A    between atoms: _286  and  _287
REMARK  120  A    between atoms: _286  and  _289
REMARK  121  A    between atoms: _289  and  _290
REMARK  122  A    between atoms: _293  and  _295
REMARK  123  A    between atoms: _295  and  _296
REMARK  124  A    between atoms: _295  and  _298
REMARK  125  A    between atoms: _298  and  _299
REMARK  126  A    between atoms: _302  and  _304
REMARK  127  A    between atoms: _304  and  _305
REMARK  128  A    between atoms: _304  and  _307
REMARK  129  A    between atoms: _307  and  _308
REMARK  130  A    between atoms: _311  and  _313
REMARK  131  A    between atoms: _313  and  _314
REMARK  132  A    between atoms: _313  and  _316
REMARK  133  A    between atoms: _316  and  _317
REMARK  134  A    between atoms: _320  and  _322
REMARK  135  A    between atoms: _322  and  _323
REMARK  136  A    between atoms: _325  and  _327
REMARK  137  A    between atoms: _327  and  _328
REMARK  138  A    between atoms: _331  and  _333
REMARK  139  A    between atoms: _333  and  _334
REMARK  140  A    between atoms: _333  and  _336
REMARK  141  A    between atoms: _336  and  _337
REMARK  142  A    between atoms: _340  and  _342
REMARK  143  A    between atoms: _342  and  _343
REMARK  144  A    between atoms: _342  and  _345
REMARK  145  A    between atoms: _345  and  _346
REMARK  146  A    between atoms: _349  and  _351
REMARK  147  A    between atoms: _351  and  _352
REMARK  148  A    between atoms: _351  and  _354
REMARK  149  A    between atoms: _354  and  _355
REMARK  150  A    between atoms: _358  and  _360
REMARK  151  A    between atoms: _360  and  _361
REMARK  152  A    between atoms: _360  and  _363
REMARK  153  A    between atoms: _366  and  _368
REMARK  154  A    between atoms: _368  and  _369
REMARK  155  A    between atoms: _368  and  _371
REMARK  156  A    between atoms: _371  and  _372
REMARK  157  A    between atoms: _372  and  _373
REMARK  158  A    between atoms: _373  and  _374
REMARK  159  A    between atoms: _374  and  _375
REMARK  160  A    between atoms: _379  and  _381
REMARK  161  A    between atoms: _381  and  _382
REMARK  162  A    between atoms: _381  and  _384
REMARK  163  A    between atoms: _384  and  _385
REMARK  164  A    between atoms: _385  and  _386
REMARK  165  A    between atoms: _388  and  _390
REMARK  166  A    between atoms: _390  and  _391
REMARK  167  A    between atoms: _390  and  _393
REMARK  168  A    between atoms: _393  and  _394
REMARK  169  A    between atoms: _397  and  _399
REMARK  170  A    between atoms: _399  and  _400
REMARK  171  A    between atoms: _402  and  _404
REMARK  172  A    between atoms: _404  and  _405
REMARK  173  A    between atoms: _407  and  _409
REMARK  174  A    between atoms: _409  and  _410
REMARK  175  A    between atoms: _409  and  _412
REMARK  176  A    between atoms: _412  and  _413
REMARK  177  A    between atoms: _416  and  _418
REMARK  178  A    between atoms: _418  and  _419
REMARK  179  A    between atoms: _421  and  _423
REMARK  180  A    between atoms: _423  and  _424
REMARK  181  A    between atoms: _426  and  _428
REMARK  182  A    between atoms: _428  and  _429
REMARK  183  A    between atoms: _428  and  _431
REMARK  184  A    between atoms: _431  and  _432
REMARK  185  A    between atoms: _438  and  _440
REMARK  186  A    between atoms: _440  and  _441
REMARK  187  A    between atoms: _440  and  _443
REMARK  188  A    between atoms: _443  and  _444
REMARK  189  A    between atoms: _447  and  _449
REMARK  190  A    between atoms: _449  and  _450
REMARK  191  A    between atoms: _449  and  _452
REMARK  192  A    between atoms: _455  and  _457
REMARK  193  A    between atoms: _457  and  _458
REMARK  194  A    between atoms: _457  and  _460
REMARK  195  A    between atoms: _460  and  _461
REMARK  196  A    between atoms: _465  and  _466
REMARK  197  A    between atoms: _471  and  _473
REMARK  198  A    between atoms: _473  and  _474
REMARK  199  A    between atoms: _473  and  _476
REMARK  200  A    between atoms: _476  and  _477
REMARK  201  A    between atoms: _481  and  _482
REMARK  202  A    between atoms: _487  and  _489
REMARK  203  A    between atoms: _489  and  _490
REMARK  204  A    between atoms: _489  and  _492
REMARK  205  A    between atoms: _495  and  _497
REMARK  206  A    between atoms: _497  and  _498
REMARK  207  A    between atoms: _497  and  _500
REMARK  208  A    between atoms: _500  and  _501
REMARK  209  A    between atoms: _506  and  _508
REMARK  210  A    between atoms: _508  and  _509
REMARK  211  A    between atoms: _508  and  _511
REMARK  212  A    between atoms: _511  and  _512
REMARK  213  A    between atoms: _515  and  _517
REMARK  214  A    between atoms: _517  and  _518
REMARK  215  A    between atoms: _517  and  _520
REMARK  216  A    between atoms: _520  and  _521
REMARK  217  A    between atoms: _524  and  _526
REMARK  218  A    between atoms: _526  and  _527
REMARK  219  A    between atoms: _529  and  _531
REMARK  220  A    between atoms: _531  and  _532
REMARK  221  A    between atoms: _531  and  _534
REMARK  222  A    between atoms: _534  and  _535
REMARK  223  A    between atoms: _535  and  _536
REMARK  224  A    between atoms: _536  and  _537
REMARK  225  A    between atoms: _546  and  _548
REMARK  226  A    between atoms: _548  and  _549
REMARK  227  A    between atoms: _548  and  _551
REMARK  228  A    between atoms: _551  and  _552
REMARK                            x       y       z     vdW  Elec       q    Type
REMARK                         _______ _______ _______ _____ _____    ______ ____
ROOT
ATOM      1  O   HOH     1      20.105  28.827  21.194  0.00  0.00    +0.000 OA
ENDROOT
TORSDOF 0
REMARK  Name = ../refined-set-2016/3ok9/3ok9_pocket.pdb
REMARK  228 active torsions:
REMARK  status: ('A' for Active; 'I' for Inactive)
REMARK    1  A    between atoms: _1  and  _3
REMARK    2  A    between atoms: _3  and  _4
REMARK    3  A    between atoms: _3  and  _6
REMARK    4  A    between atoms: _6  and  _7
REMARK    5  A    between atoms: _7  and  _8
REMARK    6  A    between atoms: _8  and  _9
REMARK    7  A    between atoms: _18  and  _20
REMARK    8  A    between atoms: _20  and  _21
REMARK    9  A    between atoms: _20  and  _23
REMARK   10  A    between atoms: _23  and  _24
REMARK   11  A    between atoms: _27  and  _29
REMARK   12  A    between atoms: _29  and  _30
REMARK   13  A    between atoms: _29  and  _32
REMARK   14  A    between atoms: _32  and  _33
REMARK   15  A    between atoms: _36  and  _38
REMARK   16  A    between atoms: _38  and  _39
REMARK   17  A    between atoms: _38  and  _41
REMARK   18  A    between atoms: _41  and  _42
REMARK   19  A    between atoms: _45  and  _47
REMARK   20  A    between atoms: _47  and  _48
REMARK   21  A    between atoms: _47  and  _50
REMARK   22  A    between atoms: _50  and  _51
REMARK   23  A    between atoms: _54  and  _56
REMARK   24  A    between atoms: _56  and  _57
REMARK   25  A    between atoms: _59  and  _61
REMARK   26  A    between atoms: _61  and  _62
REMARK   27  A    between atoms: _65  and  _67
REMARK   28  A    between atoms: _67  and  _68
REMARK   29  A    between atoms: _67  and  _70
REMARK   30  A    between atoms: _70  and  _71
REMARK   31  A    between atoms: _74  and  _76
REMARK   32  A    between atoms: _76  and  _77
REMARK   33  A    between atoms: _76  and  _79
REMARK   34  A    between atoms: _79  and  _80
REMARK   35  A    between atoms: _83  and  _85
REMARK   36  A    between atoms: _85  and  _86
REMARK   37  A    between atoms: _85  and  _88
REMARK   38  A    between atoms: _88  and  _89
REMARK   39  A    between atoms: _92  and  _94
REMARK   40  A    between atoms: _94  and  _95
REMARK   41  A    between atoms: _94  and  _97
REMARK   42  A    between atoms: _100  and  _102
REMARK   43  A    between atoms: _102  and  _103
REMARK   44  A    between atoms: _102  and  _105
REMARK   45  A    between atoms: _105  and  _106
REMARK   46  A    between atoms: _106  and  _107
REMARK   47  A    between atoms: _107  and  _108
REMARK   48  A    between atoms: _108  and  _109
REMARK   49  A    between atoms: _113  and  _115
REMARK   50  A    between atoms: _115  and  _116
REMARK   51  A    between atoms: _115  and  _118
REMARK   52  A    between atoms: _118  and  _119
REMARK   53  A    between atoms: _119  and  _120
REMARK   54  A    between atoms: _122  and  _124
REMARK   55  A    between atoms: _124  and  _125
REMARK   56  A    between atoms: _124  and  _127
REMARK   57  A    between atoms: _127  and  _128
REMARK   58  A    between atoms: _131  and  _133
REMARK   59  A    between atoms: _133  and  _134
REMARK   60  A    between atoms: _136  and  _138
REMARK   61  A    between atoms: _138  and  _139
REMARK   62  A    between atoms: _141  and  _143
REMARK   63  A    between atoms: _143  and  _144
REMARK   64  A    between atoms: _143  and  _146
REMARK   65  A    between atoms: _144  and  _145
REMARK   66  A    between atoms: _144  and  _150
REMARK   67  A    between atoms: _146  and  _147
REMARK   68  A    between atoms: _150  and  _152
REMARK   69  A    between atoms: _152  and  _153
REMARK   70  A    between atoms: _155  and  _157
REMARK   71  A    between atoms: _157  and  _158
REMARK   72  A    between atoms: _160  and  _162
REMARK   73  A    between atoms: _162  and  _163
REMARK   74  A    between atoms: _162  and  _165
REMARK   75  A    between atoms: _165  and  _166
REMARK   76  A    between atoms: _172  and  _174
REMARK   77  A    between atoms: _174  and  _175
REMARK   78  A    between atoms: _174  and  _177
REMARK   79  A    between atoms: _177  and  _178
REMARK   80  A    between atoms: _181  and  _183
REMARK   81  A    between atoms: _183  and  _184
REMARK   82  A    between atoms: _183  and  _186
REMARK   83  A    between atoms: _186  and  _187
REMARK   84  A    between atoms: _190  and  _192
REMARK   85  A    between atoms: _192  and  _193
REMARK   86  A    between atoms: _192  and  _195
REMARK   87  A    between atoms: _195  and  _196
REMARK   88  A    between atoms: _200  and  _201
REMARK   89  A    between atoms: _206  and  _208
REMARK   90  A    between atoms: _208  and  _209
REMARK   91  A    between atoms: _208  and  _211
REMARK   92  A    between atoms: _214  and  _216
REMARK   93  A    between atoms: _216  and  _217
REMARK   94  A    between atoms: _216  and  _219
REMARK   95  A    between atoms: _219  and  _220
REMARK   96  A    between atoms: _225  and  _227
REMARK   97  A    between atoms: _227  and  _228
REMARK   98  A    between atoms: _227  and  _230
REMARK   99  A    between atoms: _230  and  _231
REMARK  100  A    between atoms: _234  and  _236
REMARK  101  A    between atoms: _236  and  _237
REMARK  102  A    between atoms: _239  and  _241
REMARK  103  A    between atoms: _241  and  _242
REMARK  104  A    between atoms: _241  and  _244
REMARK  105  A    between atoms: _244  and  _245
REMARK  106  A    between atoms: _245  and  _246
REMARK  107  A    between atoms: _246  and  _247
REMARK  108  A    between atoms: _256  and  _258
REMARK  109  A    between atoms: _258  and  _259
REMARK  110  A    between atoms: _258  and  _261
REMARK  111  A    between atoms: _261  and  _262
REMARK  112  A    between atoms: _267  and  _269
REMARK  113  A    between atoms: _269  and  _270
REMARK  114  A    between atoms: _269  and  _272
REMARK  115  A    between atoms: _272  and  _273
REMARK  116  A    between atoms: _273  and  _274
REMARK  117  A    between atoms: _274  and  _275
REMARK  118  A    between atoms: _284  and  _286
REMARK  119  A    between atoms: _286  and  _287
REMARK  120  A    between atoms: _286  and  _289
REMARK  121  A    between atoms: _289  and  _290
REMARK  122  A    between atoms: _293  and  _295
REMARK  123  A    between atoms: _295  and  _296
REMARK  124  A    between atoms: _295  and  _298
REMARK  125  A    between atoms: _298  and  _299
REMARK  126  A    between atoms: _302  and  _304
REMARK  127  A    between atoms: _304  and  _305
REMARK  128  A    between atoms: _304  and  _307
REMARK  129  A    between atoms: _307  and  _308
REMARK  130  A    between atoms: _311  and  _313
REMARK  131  A    between atoms: _313  and  _314
REMARK  132  A    between atoms: _313  and  _316
REMARK  133  A    between atoms: _316  and  _317
REMARK  134  A    between atoms: _320  and  _322
REMARK  135  A    between atoms: _322  and  _323
REMARK  136  A    between atoms: _325  and  _327
REMARK  137  A    between atoms: _327  and  _328
REMARK  138  A    between atoms: _331  and  _333
REMARK  139  A    between atoms: _333  and  _334
REMARK  140  A    between atoms: _333  and  _336
REMARK  141  A    between atoms: _336  and  _337
REMARK  142  A    between atoms: _340  and  _342
REMARK  143  A    between atoms: _342  and  _343
REMARK  144  A    between atoms: _342  and  _345
REMARK  145  A    between atoms: _345  and  _346
REMARK  146  A    between atoms: _349  and  _351
REMARK  147  A    between atoms: _351  and  _352
REMARK  148  A    between atoms: _351  and  _354
REMARK  149  A    between atoms: _354  and  _355
REMARK  150  A    between atoms: _358  and  _360
REMARK  151  A    between atoms: _360  and  _361
REMARK  152  A    between atoms: _360  and  _363
REMARK  153  A    between atoms: _366  and  _368
REMARK  154  A    between atoms: _368  and  _369
REMARK  155  A    between atoms: _368  and  _371
REMARK  156  A    between atoms: _371  and  _372
REMARK  157  A    between atoms: _372  and  _373
REMARK  158  A    between atoms: _373  and  _374
REMARK  159  A    between atoms: _374  and  _375
REMARK  160  A    between atoms: _379  and  _381
REMARK  161  A    between atoms: _381  and  _382
REMARK  162  A    between atoms: _381  and  _384
REMARK  163  A    between atoms: _384  and  _385
REMARK  164  A    between atoms: _385  and  _386
REMARK  165  A    between atoms: _388  and  _390
REMARK  166  A    between atoms: _390  and  _391
REMARK  167  A    between atoms: _390  and  _393
REMARK  168  A    between atoms: _393  and  _394
REMARK  169  A    between atoms: _397  and  _399
REMARK  170  A    between atoms: _399  and  _400
REMARK  171  A    between atoms: _402  and  _404
REMARK  172  A    between atoms: _404  and  _405
REMARK  173  A    between atoms: _407  and  _409
REMARK  174  A    between atoms: _409  and  _410
REMARK  175  A    between atoms: _409  and  _412
REMARK  176  A    between atoms: _412  and  _413
REMARK  177  A    between atoms: _416  and  _418
REMARK  178  A    between atoms: _418  and  _419
REMARK  179  A    between atoms: _421  and  _423
REMARK  180  A    between atoms: _423  and  _424
REMARK  181  A    between atoms: _426  and  _428
REMARK  182  A    between atoms: _428  and  _429
REMARK  183  A    between atoms: _428  and  _431
REMARK  184  A    between atoms: _431  and  _432
REMARK  185  A    between atoms: _438  and  _440
REMARK  186  A    between atoms: _440  and  _441
REMARK  187  A    between atoms: _440  and  _443
REMARK  188  A    between atoms: _443  and  _444
REMARK  189  A    between atoms: _447  and  _449
REMARK  190  A    between atoms: _449  and  _450
REMARK  191  A    between atoms: _449  and  _452
REMARK  192  A    between atoms: _455  and  _457
REMARK  193  A    between atoms: _457  and  _458
REMARK  194  A    between atoms: _457  and  _460
REMARK  195  A    between atoms: _460  and  _461
REMARK  196  A    between atoms: _465  and  _466
REMARK  197  A    between atoms: _471  and  _473
REMARK  198  A    between atoms: _473  and  _474
REMARK  199  A    between atoms: _473  and  _476
REMARK  200  A    between atoms: _476  and  _477
REMARK  201  A    between atoms: _481  and  _482
REMARK  202  A    between atoms: _487  and  _489
REMARK  203  A    between atoms: _489  and  _490
REMARK  204  A    between atoms: _489  and  _492
REMARK  205  A    between atoms: _495  and  _497
REMARK  206  A    between atoms: _497  and  _498
REMARK  207  A    between atoms: _497  and  _500
REMARK  208  A    between atoms: _500  and  _501
REMARK  209  A    between atoms: _506  and  _508
REMARK  210  A    between atoms: _508  and  _509
REMARK  211  A    between atoms: _508  and  _511
REMARK  212  A    between atoms: _511  and  _512
REMARK  213  A    between atoms: _515  and  _517
REMARK  214  A    between atoms: _517  and  _518
REMARK  215  A    between atoms: _517  and  _520
REMARK  216  A    between atoms: _520  and  _521
REMARK  217  A    between atoms: _524  and  _526
REMARK  218  A    between atoms: _526  and  _527
REMARK  219  A    between atoms: _529  and  _531
REMARK  220  A    between atoms: _531  and  _532
REMARK  221  A    between atoms: _531  and  _534
REMARK  222  A    between atoms: _534  and  _535
REMARK  223  A    between atoms: _535  and  _536
REMARK  224  A    between atoms: _536  and  _537
REMARK  225  A    between atoms: _546  and  _548
REMARK  226  A    between atoms: _548  and  _549
REMARK  227  A    between atoms: _548  and  _551
REMARK  228  A    between atoms: _551  and  _552
REMARK                            x       y       z     vdW  Elec       q    Type
REMARK                         _______ _______ _______ _____ _____    ______ ____
ROOT
ATOM      1  O   HOH     1      20.772  33.746  10.580  0.00  0.00    +0.000 OA
ENDROOT
TORSDOF 0
REMARK  Name = ../refined-set-2016/3ok9/3ok9_pocket.pdb
REMARK  228 active torsions:
REMARK  status: ('A' for Active; 'I' for Inactive)
REMARK    1  A    between atoms: _1  and  _3
REMARK    2  A    between atoms: _3  and  _4
REMARK    3  A    between atoms: _3  and  _6
REMARK    4  A    between atoms: _6  and  _7
REMARK    5  A    between atoms: _7  and  _8
REMARK    6  A    between atoms: _8  and  _9
REMARK    7  A    between atoms: _18  and  _20
REMARK    8  A    between atoms: _20  and  _21
REMARK    9  A    between atoms: _20  and  _23
REMARK   10  A    between atoms: _23  and  _24
REMARK   11  A    between atoms: _27  and  _29
REMARK   12  A    between atoms: _29  and  _30
REMARK   13  A    between atoms: _29  and  _32
REMARK   14  A    between atoms: _32  and  _33
REMARK   15  A    between atoms: _36  and  _38
REMARK   16  A    between atoms: _38  and  _39
REMARK   17  A    between atoms: _38  and  _41
REMARK   18  A    between atoms: _41  and  _42
REMARK   19  A    between atoms: _45  and  _47
REMARK   20  A    between atoms: _47  and  _48
REMARK   21  A    between atoms: _47  and  _50
REMARK   22  A    between atoms: _50  and  _51
REMARK   23  A    between atoms: _54  and  _56
REMARK   24  A    between atoms: _56  and  _57
REMARK   25  A    between atoms: _59  and  _61
REMARK   26  A    between atoms: _61  and  _62
REMARK   27  A    between atoms: _65  and  _67
REMARK   28  A    between atoms: _67  and  _68
REMARK   29  A    between atoms: _67  and  _70
REMARK   30  A    between atoms: _70  and  _71
REMARK   31  A    between atoms: _74  and  _76
REMARK   32  A    between atoms: _76  and  _77
REMARK   33  A    between atoms: _76  and  _79
REMARK   34  A    between atoms: _79  and  _80
REMARK   35  A    between atoms: _83  and  _85
REMARK   36  A    between atoms: _85  and  _86
REMARK   37  A    between atoms: _85  and  _88
REMARK   38  A    between atoms: _88  and  _89
REMARK   39  A    between atoms: _92  and  _94
REMARK   40  A    between atoms: _94  and  _95
REMARK   41  A    between atoms: _94  and  _97
REMARK   42  A    between atoms: _100  and  _102
REMARK   43  A    between atoms: _102  and  _103
REMARK   44  A    between atoms: _102  and  _105
REMARK   45  A    between atoms: _105  and  _106
REMARK   46  A    between atoms: _106  and  _107
REMARK   47  A    between atoms: _107  and  _108
REMARK   48  A    between atoms: _108  and  _109
REMARK   49  A    between atoms: _113  and  _115
REMARK   50  A    between atoms: _115  and  _116
REMARK   51  A    between atoms: _115  and  _118
REMARK   52  A    between atoms: _118  and  _119
REMARK   53  A    between atoms: _119  and  _120
REMARK   54  A    between atoms: _122  and  _124
REMARK   55  A    between atoms: _124  and  _125
REMARK   56  A    between atoms: _124  and  _127
REMARK   57  A    between atoms: _127  and  _128
REMARK   58  A    between atoms: _131  and  _133
REMARK   59  A    between atoms: _133  and  _134
REMARK   60  A    between atoms: _136  and  _138
REMARK   61  A    between atoms: _138  and  _139
REMARK   62  A    between atoms: _141  and  _143
REMARK   63  A    between atoms: _143  and  _144
REMARK   64  A    between atoms: _143  and  _146
REMARK   65  A    between atoms: _144  and  _145
REMARK   66  A    between atoms: _144  and  _150
REMARK   67  A    between atoms: _146  and  _147
REMARK   68  A    between atoms: _150  and  _152
REMARK   69  A    between atoms: _152  and  _153
REMARK   70  A    between atoms: _155  and  _157
REMARK   71  A    between atoms: _157  and  _158
REMARK   72  A    between atoms: _160  and  _162
REMARK   73  A    between atoms: _162  and  _163
REMARK   74  A    between atoms: _162  and  _165
REMARK   75  A    between atoms: _165  and  _166
REMARK   76  A    between atoms: _172  and  _174
REMARK   77  A    between atoms: _174  and  _175
REMARK   78  A    between atoms: _174  and  _177
REMARK   79  A    between atoms: _177  and  _178
REMARK   80  A    between atoms: _181  and  _183
REMARK   81  A    between atoms: _183  and  _184
REMARK   82  A    between atoms: _183  and  _186
REMARK   83  A    between atoms: _186  and  _187
REMARK   84  A    between atoms: _190  and  _192
REMARK   85  A    between atoms: _192  and  _193
REMARK   86  A    between atoms: _192  and  _195
REMARK   87  A    between atoms: _195  and  _196
REMARK   88  A    between atoms: _200  and  _201
REMARK   89  A    between atoms: _206  and  _208
REMARK   90  A    between atoms: _208  and  _209
REMARK   91  A    between atoms: _208  and  _211
REMARK   92  A    between atoms: _214  and  _216
REMARK   93  A    between atoms: _216  and  _217
REMARK   94  A    between atoms: _216  and  _219
REMARK   95  A    between atoms: _219  and  _220
REMARK   96  A    between atoms: _225  and  _227
REMARK   97  A    between atoms: _227  and  _228
REMARK   98  A    between atoms: _227  and  _230
REMARK   99  A    between atoms: _230  and  _231
REMARK  100  A    between atoms: _234  and  _236
REMARK  101  A    between atoms: _236  and  _237
REMARK  102  A    between atoms: _239  and  _241
REMARK  103  A    between atoms: _241  and  _242
REMARK  104  A    between atoms: _241  and  _244
REMARK  105  A    between atoms: _244  and  _245
REMARK  106  A    between atoms: _245  and  _246
REMARK  107  A    between atoms: _246  and  _247
REMARK  108  A    between atoms: _256  and  _258
REMARK  109  A    between atoms: _258  and  _259
REMARK  110  A    between atoms: _258  and  _261
REMARK  111  A    between atoms: _261  and  _262
REMARK  112  A    between atoms: _267  and  _269
REMARK  113  A    between atoms: _269  and  _270
REMARK  114  A    between atoms: _269  and  _272
REMARK  115  A    between atoms: _272  and  _273
REMARK  116  A    between atoms: _273  and  _274
REMARK  117  A    between atoms: _274  and  _275
REMARK  118  A    between atoms: _284  and  _286
REMARK  119  A    between atoms: _286  and  _287
REMARK  120  A    between atoms: _286  and  _289
REMARK  121  A    between atoms: _289  and  _290
REMARK  122  A    between atoms: _293  and  _295
REMARK  123  A    between atoms: _295  and  _296
REMARK  124  A    between atoms: _295  and  _298
REMARK  125  A    between atoms: _298  and  _299
REMARK  126  A    between atoms: _302  and  _304
REMARK  127  A    between atoms: _304  and  _305
REMARK  128  A    between atoms: _304  and  _307
REMARK  129  A    between atoms: _307  and  _308
REMARK  130  A    between atoms: _311  and  _313
REMARK  131  A    between atoms: _313  and  _314
REMARK  132  A    between atoms: _313  and  _316
REMARK  133  A    between atoms: _316  and  _317
REMARK  134  A    between atoms: _320  and  _322
REMARK  135  A    between atoms: _322  and  _323
REMARK  136  A    between atoms: _325  and  _327
REMARK  137  A    between atoms: _327  and  _328
REMARK  138  A    between atoms: _331  and  _333
REMARK  139  A    between atoms: _333  and  _334
REMARK  140  A    between atoms: _333  and  _336
REMARK  141  A    between atoms: _336  and  _337
REMARK  142  A    between atoms: _340  and  _342
REMARK  143  A    between atoms: _342  and  _343
REMARK  144  A    between atoms: _342  and  _345
REMARK  145  A    between atoms: _345  and  _346
REMARK  146  A    between atoms: _349  and  _351
REMARK  147  A    between atoms: _351  and  _352
REMARK  148  A    between atoms: _351  and  _354
REMARK  149  A    between atoms: _354  and  _355
REMARK  150  A    between atoms: _358  and  _360
REMARK  151  A    between atoms: _360  and  _361
REMARK  152  A    between atoms: _360  and  _363
REMARK  153  A    between atoms: _366  and  _368
REMARK  154  A    between atoms: _368  and  _369
REMARK  155  A    between atoms: _368  and  _371
REMARK  156  A    between atoms: _371  and  _372
REMARK  157  A    between atoms: _372  and  _373
REMARK  158  A    between atoms: _373  and  _374
REMARK  159  A    between atoms: _374  and  _375
REMARK  160  A    between atoms: _379  and  _381
REMARK  161  A    between atoms: _381  and  _382
REMARK  162  A    between atoms: _381  and  _384
REMARK  163  A    between atoms: _384  and  _385
REMARK  164  A    between atoms: _385  and  _386
REMARK  165  A    between atoms: _388  and  _390
REMARK  166  A    between atoms: _390  and  _391
REMARK  167  A    between atoms: _390  and  _393
REMARK  168  A    between atoms: _393  and  _394
REMARK  169  A    between atoms: _397  and  _399
REMARK  170  A    between atoms: _399  and  _400
REMARK  171  A    between atoms: _402  and  _404
REMARK  172  A    between atoms: _404  and  _405
REMARK  173  A    between atoms: _407  and  _409
REMARK  174  A    between atoms: _409  and  _410
REMARK  175  A    between atoms: _409  and  _412
REMARK  176  A    between atoms: _412  and  _413
REMARK  177  A    between atoms: _416  and  _418
REMARK  178  A    between atoms: _418  and  _419
REMARK  179  A    between atoms: _421  and  _423
REMARK  180  A    between atoms: _423  and  _424
REMARK  181  A    between atoms: _426  and  _428
REMARK  182  A    between atoms: _428  and  _429
REMARK  183  A    between atoms: _428  and  _431
REMARK  184  A    between atoms: _431  and  _432
REMARK  185  A    between atoms: _438  and  _440
REMARK  186  A    between atoms: _440  and  _441
REMARK  187  A    between atoms: _440  and  _443
REMARK  188  A    between atoms: _443  and  _444
REMARK  189  A    between atoms: _447  and  _449
REMARK  190  A    between atoms: _449  and  _450
REMARK  191  A    between atoms: _449  and  _452
REMARK  192  A    between atoms: _455  and  _457
REMARK  193  A    between atoms: _457  and  _458
REMARK  194  A    between atoms: _457  and  _460
REMARK  195  A    between atoms: _460  and  _461
REMARK  196  A    between atoms: _465  and  _466
REMARK  197  A    between atoms: _471  and  _473
REMARK  198  A    between atoms: _473  and  _474
REMARK  199  A    between atoms: _473  and  _476
REMARK  200  A    between atoms: _476  and  _477
REMARK  201  A    between atoms: _481  and  _482
REMARK  202  A    between atoms: _487  and  _489
REMARK  203  A    between atoms: _489  and  _490
REMARK  204  A    between atoms: _489  and  _492
REMARK  205  A    between atoms: _495  and  _497
REMARK  206  A    between atoms: _497  and  _498
REMARK  207  A    between atoms: _497  and  _500
REMARK  208  A    between atoms: _500  and  _501
REMARK  209  A    between atoms: _506  and  _508
REMARK  210  A    between atoms: _508  and  _509
REMARK  211  A    between atoms: _508  and  _511
REMARK  212  A    between atoms: _511  and  _512
REMARK  213  A    between atoms: _515  and  _517
REMARK  214  A    between atoms: _517  and  _518
REMARK  215  A    between atoms: _517  and  _520
REMARK  216  A    between atoms: _520  and  _521
REMARK  217  A    between atoms: _524  and  _526
REMARK  218  A    between atoms: _526  and  _527
REMARK  219  A    between atoms: _529  and  _531
REMARK  220  A    between atoms: _531  and  _532
REMARK  221  A    between atoms: _531  and  _534
REMARK  222  A    between atoms: _534  and  _535
REMARK  223  A    between atoms: _535  and  _536
REMARK  224  A    between atoms: _536  and  _537
REMARK  225  A    between atoms: _546  and  _548
REMARK  226  A    between atoms: _548  and  _549
REMARK  227  A    between atoms: _548  and  _551
REMARK  228  A    between atoms: _551  and  _552
REMARK                            x       y       z     vdW  Elec       q    Type
REMARK                         _______ _______ _______ _____ _____    ______ ____
ROOT
ATOM      1  O   HOH     1      21.227  35.621  17.411  0.00  0.00    +0.000 OA
ENDROOT
TORSDOF 0
REMARK  Name = ../refined-set-2016/3ok9/3ok9_pocket.pdb
REMARK  228 active torsions:
REMARK  status: ('A' for Active; 'I' for Inactive)
REMARK    1  A    between atoms: _1  and  _3
REMARK    2  A    between atoms: _3  and  _4
REMARK    3  A    between atoms: _3  and  _6
REMARK    4  A    between atoms: _6  and  _7
REMARK    5  A    between atoms: _7  and  _8
REMARK    6  A    between atoms: _8  and  _9
REMARK    7  A    between atoms: _18  and  _20
REMARK    8  A    between atoms: _20  and  _21
REMARK    9  A    between atoms: _20  and  _23
REMARK   10  A    between atoms: _23  and  _24
REMARK   11  A    between atoms: _27  and  _29
REMARK   12  A    between atoms: _29  and  _30
REMARK   13  A    between atoms: _29  and  _32
REMARK   14  A    between atoms: _32  and  _33
REMARK   15  A    between atoms: _36  and  _38
REMARK   16  A    between atoms: _38  and  _39
REMARK   17  A    between atoms: _38  and  _41
REMARK   18  A    between atoms: _41  and  _42
REMARK   19  A    between atoms: _45  and  _47
REMARK   20  A    between atoms: _47  and  _48
REMARK   21  A    between atoms: _47  and  _50
REMARK   22  A    between atoms: _50  and  _51
REMARK   23  A    between atoms: _54  and  _56
REMARK   24  A    between atoms: _56  and  _57
REMARK   25  A    between atoms: _59  and  _61
REMARK   26  A    between atoms: _61  and  _62
REMARK   27  A    between atoms: _65  and  _67
REMARK   28  A    between atoms: _67  and  _68
REMARK   29  A    between atoms: _67  and  _70
REMARK   30  A    between atoms: _70  and  _71
REMARK   31  A    between atoms: _74  and  _76
REMARK   32  A    between atoms: _76  and  _77
REMARK   33  A    between atoms: _76  and  _79
REMARK   34  A    between atoms: _79  and  _80
REMARK   35  A    between atoms: _83  and  _85
REMARK   36  A    between atoms: _85  and  _86
REMARK   37  A    between atoms: _85  and  _88
REMARK   38  A    between atoms: _88  and  _89
REMARK   39  A    between atoms: _92  and  _94
REMARK   40  A    between atoms: _94  and  _95
REMARK   41  A    between atoms: _94  and  _97
REMARK   42  A    between atoms: _100  and  _102
REMARK   43  A    between atoms: _102  and  _103
REMARK   44  A    between atoms: _102  and  _105
REMARK   45  A    between atoms: _105  and  _106
REMARK   46  A    between atoms: _106  and  _107
REMARK   47  A    between atoms: _107  and  _108
REMARK   48  A    between atoms: _108  and  _109
REMARK   49  A    between atoms: _113  and  _115
REMARK   50  A    between atoms: _115  and  _116
REMARK   51  A    between atoms: _115  and  _118
REMARK   52  A    between atoms: _118  and  _119
REMARK   53  A    between atoms: _119  and  _120
REMARK   54  A    between atoms: _122  and  _124
REMARK   55  A    between atoms: _124  and  _125
REMARK   56  A    between atoms: _124  and  _127
REMARK   57  A    between atoms: _127  and  _128
REMARK   58  A    between atoms: _131  and  _133
REMARK   59  A    between atoms: _133  and  _134
REMARK   60  A    between atoms: _136  and  _138
REMARK   61  A    between atoms: _138  and  _139
REMARK   62  A    between atoms: _141  and  _143
REMARK   63  A    between atoms: _143  and  _144
REMARK   64  A    between atoms: _143  and  _146
REMARK   65  A    between atoms: _144  and  _145
REMARK   66  A    between atoms: _144  and  _150
REMARK   67  A    between atoms: _146  and  _147
REMARK   68  A    between atoms: _150  and  _152
REMARK   69  A    between atoms: _152  and  _153
REMARK   70  A    between atoms: _155  and  _157
REMARK   71  A    between atoms: _157  and  _158
REMARK   72  A    between atoms: _160  and  _162
REMARK   73  A    between atoms: _162  and  _163
REMARK   74  A    between atoms: _162  and  _165
REMARK   75  A    between atoms: _165  and  _166
REMARK   76  A    between atoms: _172  and  _174
REMARK   77  A    between atoms: _174  and  _175
REMARK   78  A    between atoms: _174  and  _177
REMARK   79  A    between atoms: _177  and  _178
REMARK   80  A    between atoms: _181  and  _183
REMARK   81  A    between atoms: _183  and  _184
REMARK   82  A    between atoms: _183  and  _186
REMARK   83  A    between atoms: _186  and  _187
REMARK   84  A    between atoms: _190  and  _192
REMARK   85  A    between atoms: _192  and  _193
REMARK   86  A    between atoms: _192  and  _195
REMARK   87  A    between atoms: _195  and  _196
REMARK   88  A    between atoms: _200  and  _201
REMARK   89  A    between atoms: _206  and  _208
REMARK   90  A    between atoms: _208  and  _209
REMARK   91  A    between atoms: _208  and  _211
REMARK   92  A    between atoms: _214  and  _216
REMARK   93  A    between atoms: _216  and  _217
REMARK   94  A    between atoms: _216  and  _219
REMARK   95  A    between atoms: _219  and  _220
REMARK   96  A    between atoms: _225  and  _227
REMARK   97  A    between atoms: _227  and  _228
REMARK   98  A    between atoms: _227  and  _230
REMARK   99  A    between atoms: _230  and  _231
REMARK  100  A    between atoms: _234  and  _236
REMARK  101  A    between atoms: _236  and  _237
REMARK  102  A    between atoms: _239  and  _241
REMARK  103  A    between atoms: _241  and  _242
REMARK  104  A    between atoms: _241  and  _244
REMARK  105  A    between atoms: _244  and  _245
REMARK  106  A    between atoms: _245  and  _246
REMARK  107  A    between atoms: _246  and  _247
REMARK  108  A    between atoms: _256  and  _258
REMARK  109  A    between atoms: _258  and  _259
REMARK  110  A    between atoms: _258  and  _261
REMARK  111  A    between atoms: _261  and  _262
REMARK  112  A    between atoms: _267  and  _269
REMARK  113  A    between atoms: _269  and  _270
REMARK  114  A    between atoms: _269  and  _272
REMARK  115  A    between atoms: _272  and  _273
REMARK  116  A    between atoms: _273  and  _274
REMARK  117  A    between atoms: _274  and  _275
REMARK  118  A    between atoms: _284  and  _286
REMARK  119  A    between atoms: _286  and  _287
REMARK  120  A    between atoms: _286  and  _289
REMARK  121  A    between atoms: _289  and  _290
REMARK  122  A    between atoms: _293  and  _295
REMARK  123  A    between atoms: _295  and  _296
REMARK  124  A    between atoms: _295  and  _298
REMARK  125  A    between atoms: _298  and  _299
REMARK  126  A    between atoms: _302  and  _304
REMARK  127  A    between atoms: _304  and  _305
REMARK  128  A    between atoms: _304  and  _307
REMARK  129  A    between atoms: _307  and  _308
REMARK  130  A    between atoms: _311  and  _313
REMARK  131  A    between atoms: _313  and  _314
REMARK  132  A    between atoms: _313  and  _316
REMARK  133  A    between atoms: _316  and  _317
REMARK  134  A    between atoms: _320  and  _322
REMARK  135  A    between atoms: _322  and  _323
REMARK  136  A    between atoms: _325  and  _327
REMARK  137  A    between atoms: _327  and  _328
REMARK  138  A    between atoms: _331  and  _333
REMARK  139  A    between atoms: _333  and  _334
REMARK  140  A    between atoms: _333  and  _336
REMARK  141  A    between atoms: _336  and  _337
REMARK  142  A    between atoms: _340  and  _342
REMARK  143  A    between atoms: _342  and  _343
REMARK  144  A    between atoms: _342  and  _345
REMARK  145  A    between atoms: _345  and  _346
REMARK  146  A    between atoms: _349  and  _351
REMARK  147  A    between atoms: _351  and  _352
REMARK  148  A    between atoms: _351  and  _354
REMARK  149  A    between atoms: _354  and  _355
REMARK  150  A    between atoms: _358  and  _360
REMARK  151  A    between atoms: _360  and  _361
REMARK  152  A    between atoms: _360  and  _363
REMARK  153  A    between atoms: _366  and  _368
REMARK  154  A    between atoms: _368  and  _369
REMARK  155  A    between atoms: _368  and  _371
REMARK  156  A    between atoms: _371  and  _372
REMARK  157  A    between atoms: _372  and  _373
REMARK  158  A    between atoms: _373  and  _374
REMARK  159  A    between atoms: _374  and  _375
REMARK  160  A    between atoms: _379  and  _381
REMARK  161  A    between atoms: _381  and  _382
REMARK  162  A    between atoms: _381  and  _384
REMARK  163  A    between atoms: _384  and  _385
REMARK  164  A    between atoms: _385  and  _386
REMARK  165  A    between atoms: _388  and  _390
REMARK  166  A    between atoms: _390  and  _391
REMARK  167  A    between atoms: _390  and  _393
REMARK  168  A    between atoms: _393  and  _394
REMARK  169  A    between atoms: _397  and  _399
REMARK  170  A    between atoms: _399  and  _400
REMARK  171  A    between atoms: _402  and  _404
REMARK  172  A    between atoms: _404  and  _405
REMARK  173  A    between atoms: _407  and  _409
REMARK  174  A    between atoms: _409  and  _410
REMARK  175  A    between atoms: _409  and  _412
REMARK  176  A    between atoms: _412  and  _413
REMARK  177  A    between atoms: _416  and  _418
REMARK  178  A    between atoms: _418  and  _419
REMARK  179  A    between atoms: _421  and  _423
REMARK  180  A    between atoms: _423  and  _424
REMARK  181  A    between atoms: _426  and  _428
REMARK  182  A    between atoms: _428  and  _429
REMARK  183  A    between atoms: _428  and  _431
REMARK  184  A    between atoms: _431  and  _432
REMARK  185  A    between atoms: _438  and  _440
REMARK  186  A    between atoms: _440  and  _441
REMARK  187  A    between atoms: _440  and  _443
REMARK  188  A    between atoms: _443  and  _444
REMARK  189  A    between atoms: _447  and  _449
REMARK  190  A    between atoms: _449  and  _450
REMARK  191  A    between atoms: _449  and  _452
REMARK  192  A    between atoms: _455  and  _457
REMARK  193  A    between atoms: _457  and  _458
REMARK  194  A    between atoms: _457  and  _460
REMARK  195  A    between atoms: _460  and  _461
REMARK  196  A    between atoms: _465  and  _466
REMARK  197  A    between atoms: _471  and  _473
REMARK  198  A    between atoms: _473  and  _474
REMARK  199  A    between atoms: _473  and  _476
REMARK  200  A    between atoms: _476  and  _477
REMARK  201  A    between atoms: _481  and  _482
REMARK  202  A    between atoms: _487  and  _489
REMARK  203  A    between atoms: _489  and  _490
REMARK  204  A    between atoms: _489  and  _492
REMARK  205  A    between atoms: _495  and  _497
REMARK  206  A    between atoms: _497  and  _498
REMARK  207  A    between atoms: _497  and  _500
REMARK  208  A    between atoms: _500  and  _501
REMARK  209  A    between atoms: _506  and  _508
REMARK  210  A    between atoms: _508  and  _509
REMARK  211  A    between atoms: _508  and  _511
REMARK  212  A    between atoms: _511  and  _512
REMARK  213  A    between atoms: _515  and  _517
REMARK  214  A    between atoms: _517  and  _518
REMARK  215  A    between atoms: _517  and  _520
REMARK  216  A    between atoms: _520  and  _521
REMARK  217  A    between atoms: _524  and  _526
REMARK  218  A    between atoms: _526  and  _527
REMARK  219  A    between atoms: _529  and  _531
REMARK  220  A    between atoms: _531  and  _532
REMARK  221  A    between atoms: _531  and  _534
REMARK  222  A    between atoms: _534  and  _535
REMARK  223  A    between atoms: _535  and  _536
REMARK  224  A    between atoms: _536  and  _537
REMARK  225  A    between atoms: _546  and  _548
REMARK  226  A    between atoms: _548  and  _549
REMARK  227  A    between atoms: _548  and  _551
REMARK  228  A    between atoms: _551  and  _552
REMARK                            x       y       z     vdW  Elec       q    Type
REMARK                         _______ _______ _______ _____ _____    ______ ____
ROOT
ATOM      1  O   HOH     1      25.689  33.817  11.165  0.00  0.00    +0.000 OA
ENDROOT
TORSDOF 0
REMARK  Name = ../refined-set-2016/3ok9/3ok9_pocket.pdb
REMARK  228 active torsions:
REMARK  status: ('A' for Active; 'I' for Inactive)
REMARK    1  A    between atoms: _1  and  _3
REMARK    2  A    between atoms: _3  and  _4
REMARK    3  A    between atoms: _3  and  _6
REMARK    4  A    between atoms: _6  and  _7
REMARK    5  A    between atoms: _7  and  _8
REMARK    6  A    between atoms: _8  and  _9
REMARK    7  A    between atoms: _18  and  _20
REMARK    8  A    between atoms: _20  and  _21
REMARK    9  A    between atoms: _20  and  _23
REMARK   10  A    between atoms: _23  and  _24
REMARK   11  A    between atoms: _27  and  _29
REMARK   12  A    between atoms: _29  and  _30
REMARK   13  A    between atoms: _29  and  _32
REMARK   14  A    between atoms: _32  and  _33
REMARK   15  A    between atoms: _36  and  _38
REMARK   16  A    between atoms: _38  and  _39
REMARK   17  A    between atoms: _38  and  _41
REMARK   18  A    between atoms: _41  and  _42
REMARK   19  A    between atoms: _45  and  _47
REMARK   20  A    between atoms: _47  and  _48
REMARK   21  A    between atoms: _47  and  _50
REMARK   22  A    between atoms: _50  and  _51
REMARK   23  A    between atoms: _54  and  _56
REMARK   24  A    between atoms: _56  and  _57
REMARK   25  A    between atoms: _59  and  _61
REMARK   26  A    between atoms: _61  and  _62
REMARK   27  A    between atoms: _65  and  _67
REMARK   28  A    between atoms: _67  and  _68
REMARK   29  A    between atoms: _67  and  _70
REMARK   30  A    between atoms: _70  and  _71
REMARK   31  A    between atoms: _74  and  _76
REMARK   32  A    between atoms: _76  and  _77
REMARK   33  A    between atoms: _76  and  _79
REMARK   34  A    between atoms: _79  and  _80
REMARK   35  A    between atoms: _83  and  _85
REMARK   36  A    between atoms: _85  and  _86
REMARK   37  A    between atoms: _85  and  _88
REMARK   38  A    between atoms: _88  and  _89
REMARK   39  A    between atoms: _92  and  _94
REMARK   40  A    between atoms: _94  and  _95
REMARK   41  A    between atoms: _94  and  _97
REMARK   42  A    between atoms: _100  and  _102
REMARK   43  A    between atoms: _102  and  _103
REMARK   44  A    between atoms: _102  and  _105
REMARK   45  A    between atoms: _105  and  _106
REMARK   46  A    between atoms: _106  and  _107
REMARK   47  A    between atoms: _107  and  _108
REMARK   48  A    between atoms: _108  and  _109
REMARK   49  A    between atoms: _113  and  _115
REMARK   50  A    between atoms: _115  and  _116
REMARK   51  A    between atoms: _115  and  _118
REMARK   52  A    between atoms: _118  and  _119
REMARK   53  A    between atoms: _119  and  _120
REMARK   54  A    between atoms: _122  and  _124
REMARK   55  A    between atoms: _124  and  _125
REMARK   56  A    between atoms: _124  and  _127
REMARK   57  A    between atoms: _127  and  _128
REMARK   58  A    between atoms: _131  and  _133
REMARK   59  A    between atoms: _133  and  _134
REMARK   60  A    between atoms: _136  and  _138
REMARK   61  A    between atoms: _138  and  _139
REMARK   62  A    between atoms: _141  and  _143
REMARK   63  A    between atoms: _143  and  _144
REMARK   64  A    between atoms: _143  and  _146
REMARK   65  A    between atoms: _144  and  _145
REMARK   66  A    between atoms: _144  and  _150
REMARK   67  A    between atoms: _146  and  _147
REMARK   68  A    between atoms: _150  and  _152
REMARK   69  A    between atoms: _152  and  _153
REMARK   70  A    between atoms: _155  and  _157
REMARK   71  A    between atoms: _157  and  _158
REMARK   72  A    between atoms: _160  and  _162
REMARK   73  A    between atoms: _162  and  _163
REMARK   74  A    between atoms: _162  and  _165
REMARK   75  A    between atoms: _165  and  _166
REMARK   76  A    between atoms: _172  and  _174
REMARK   77  A    between atoms: _174  and  _175
REMARK   78  A    between atoms: _174  and  _177
REMARK   79  A    between atoms: _177  and  _178
REMARK   80  A    between atoms: _181  and  _183
REMARK   81  A    between atoms: _183  and  _184
REMARK   82  A    between atoms: _183  and  _186
REMARK   83  A    between atoms: _186  and  _187
REMARK   84  A    between atoms: _190  and  _192
REMARK   85  A    between atoms: _192  and  _193
REMARK   86  A    between atoms: _192  and  _195
REMARK   87  A    between atoms: _195  and  _196
REMARK   88  A    between atoms: _200  and  _201
REMARK   89  A    between atoms: _206  and  _208
REMARK   90  A    between atoms: _208  and  _209
REMARK   91  A    between atoms: _208  and  _211
REMARK   92  A    between atoms: _214  and  _216
REMARK   93  A    between atoms: _216  and  _217
REMARK   94  A    between atoms: _216  and  _219
REMARK   95  A    between atoms: _219  and  _220
REMARK   96  A    between atoms: _225  and  _227
REMARK   97  A    between atoms: _227  and  _228
REMARK   98  A    between atoms: _227  and  _230
REMARK   99  A    between atoms: _230  and  _231
REMARK  100  A    between atoms: _234  and  _236
REMARK  101  A    between atoms: _236  and  _237
REMARK  102  A    between atoms: _239  and  _241
REMARK  103  A    between atoms: _241  and  _242
REMARK  104  A    between atoms: _241  and  _244
REMARK  105  A    between atoms: _244  and  _245
REMARK  106  A    between atoms: _245  and  _246
REMARK  107  A    between atoms: _246  and  _247
REMARK  108  A    between atoms: _256  and  _258
REMARK  109  A    between atoms: _258  and  _259
REMARK  110  A    between atoms: _258  and  _261
REMARK  111  A    between atoms: _261  and  _262
REMARK  112  A    between atoms: _267  and  _269
REMARK  113  A    between atoms: _269  and  _270
REMARK  114  A    between atoms: _269  and  _272
REMARK  115  A    between atoms: _272  and  _273
REMARK  116  A    between atoms: _273  and  _274
REMARK  117  A    between atoms: _274  and  _275
REMARK  118  A    between atoms: _284  and  _286
REMARK  119  A    between atoms: _286  and  _287
REMARK  120  A    between atoms: _286  and  _289
REMARK  121  A    between atoms: _289  and  _290
REMARK  122  A    between atoms: _293  and  _295
REMARK  123  A    between atoms: _295  and  _296
REMARK  124  A    between atoms: _295  and  _298
REMARK  125  A    between atoms: _298  and  _299
REMARK  126  A    between atoms: _302  and  _304
REMARK  127  A    between atoms: _304  and  _305
REMARK  128  A    between atoms: _304  and  _307
REMARK  129  A    between atoms: _307  and  _308
REMARK  130  A    between atoms: _311  and  _313
REMARK  131  A    between atoms: _313  and  _314
REMARK  132  A    between atoms: _313  and  _316
REMARK  133  A    between atoms: _316  and  _317
REMARK  134  A    between atoms: _320  and  _322
REMARK  135  A    between atoms: _322  and  _323
REMARK  136  A    between atoms: _325  and  _327
REMARK  137  A    between atoms: _327  and  _328
REMARK  138  A    between atoms: _331  and  _333
REMARK  139  A    between atoms: _333  and  _334
REMARK  140  A    between atoms: _333  and  _336
REMARK  141  A    between atoms: _336  and  _337
REMARK  142  A    between atoms: _340  and  _342
REMARK  143  A    between atoms: _342  and  _343
REMARK  144  A    between atoms: _342  and  _345
REMARK  145  A    between atoms: _345  and  _346
REMARK  146  A    between atoms: _349  and  _351
REMARK  147  A    between atoms: _351  and  _352
REMARK  148  A    between atoms: _351  and  _354
REMARK  149  A    between atoms: _354  and  _355
REMARK  150  A    between atoms: _358  and  _360
REMARK  151  A    between atoms: _360  and  _361
REMARK  152  A    between atoms: _360  and  _363
REMARK  153  A    between atoms: _366  and  _368
REMARK  154  A    between atoms: _368  and  _369
REMARK  155  A    between atoms: _368  and  _371
REMARK  156  A    between atoms: _371  and  _372
REMARK  157  A    between atoms: _372  and  _373
REMARK  158  A    between atoms: _373  and  _374
REMARK  159  A    between atoms: _374  and  _375
REMARK  160  A    between atoms: _379  and  _381
REMARK  161  A    between atoms: _381  and  _382
REMARK  162  A    between atoms: _381  and  _384
REMARK  163  A    between atoms: _384  and  _385
REMARK  164  A    between atoms: _385  and  _386
REMARK  165  A    between atoms: _388  and  _390
REMARK  166  A    between atoms: _390  and  _391
REMARK  167  A    between atoms: _390  and  _393
REMARK  168  A    between atoms: _393  and  _394
REMARK  169  A    between atoms: _397  and  _399
REMARK  170  A    between atoms: _399  and  _400
REMARK  171  A    between atoms: _402  and  _404
REMARK  172  A    between atoms: _404  and  _405
REMARK  173  A    between atoms: _407  and  _409
REMARK  174  A    between atoms: _409  and  _410
REMARK  175  A    between atoms: _409  and  _412
REMARK  176  A    between atoms: _412  and  _413
REMARK  177  A    between atoms: _416  and  _418
REMARK  178  A    between atoms: _418  and  _419
REMARK  179  A    between atoms: _421  and  _423
REMARK  180  A    between atoms: _423  and  _424
REMARK  181  A    between atoms: _426  and  _428
REMARK  182  A    between atoms: _428  and  _429
REMARK  183  A    between atoms: _428  and  _431
REMARK  184  A    between atoms: _431  and  _432
REMARK  185  A    between atoms: _438  and  _440
REMARK  186  A    between atoms: _440  and  _441
REMARK  187  A    between atoms: _440  and  _443
REMARK  188  A    between atoms: _443  and  _444
REMARK  189  A    between atoms: _447  and  _449
REMARK  190  A    between atoms: _449  and  _450
REMARK  191  A    between atoms: _449  and  _452
REMARK  192  A    between atoms: _455  and  _457
REMARK  193  A    between atoms: _457  and  _458
REMARK  194  A    between atoms: _457  and  _460
REMARK  195  A    between atoms: _460  and  _461
REMARK  196  A    between atoms: _465  and  _466
REMARK  197  A    between atoms: _471  and  _473
REMARK  198  A    between atoms: _473  and  _474
REMARK  199  A    between atoms: _473  and  _476
REMARK  200  A    between atoms: _476  and  _477
REMARK  201  A    between atoms: _481  and  _482
REMARK  202  A    between atoms: _487  and  _489
REMARK  203  A    between atoms: _489  and  _490
REMARK  204  A    between atoms: _489  and  _492
REMARK  205  A    between atoms: _495  and  _497
REMARK  206  A    between atoms: _497  and  _498
REMARK  207  A    between atoms: _497  and  _500
REMARK  208  A    between atoms: _500  and  _501
REMARK  209  A    between atoms: _506  and  _508
REMARK  210  A    between atoms: _508  and  _509
REMARK  211  A    between atoms: _508  and  _511
REMARK  212  A    between atoms: _511  and  _512
REMARK  213  A    between atoms: _515  and  _517
REMARK  214  A    between atoms: _517  and  _518
REMARK  215  A    between atoms: _517  and  _520
REMARK  216  A    between atoms: _520  and  _521
REMARK  217  A    between atoms: _524  and  _526
REMARK  218  A    between atoms: _526  and  _527
REMARK  219  A    between atoms: _529  and  _531
REMARK  220  A    between atoms: _531  and  _532
REMARK  221  A    between atoms: _531  and  _534
REMARK  222  A    between atoms: _534  and  _535
REMARK  223  A    between atoms: _535  and  _536
REMARK  224  A    between atoms: _536  and  _537
REMARK  225  A    between atoms: _546  and  _548
REMARK  226  A    between atoms: _548  and  _549
REMARK  227  A    between atoms: _548  and  _551
REMARK  228  A    between atoms: _551  and  _552
REMARK                            x       y       z     vdW  Elec       q    Type
REMARK                         _______ _______ _______ _____ _____    ______ ____
ROOT
ATOM      1  O   HOH     1      28.131  33.571  11.337  0.00  0.00    +0.000 OA
ENDROOT
TORSDOF 0
REMARK  Name = ../refined-set-2016/3ok9/3ok9_pocket.pdb
REMARK  228 active torsions:
REMARK  status: ('A' for Active; 'I' for Inactive)
REMARK    1  A    between atoms: _1  and  _3
REMARK    2  A    between atoms: _3  and  _4
REMARK    3  A    between atoms: _3  and  _6
REMARK    4  A    between atoms: _6  and  _7
REMARK    5  A    between atoms: _7  and  _8
REMARK    6  A    between atoms: _8  and  _9
REMARK    7  A    between atoms: _18  and  _20
REMARK    8  A    between atoms: _20  and  _21
REMARK    9  A    between atoms: _20  and  _23
REMARK   10  A    between atoms: _23  and  _24
REMARK   11  A    between atoms: _27  and  _29
REMARK   12  A    between atoms: _29  and  _30
REMARK   13  A    between atoms: _29  and  _32
REMARK   14  A    between atoms: _32  and  _33
REMARK   15  A    between atoms: _36  and  _38
REMARK   16  A    between atoms: _38  and  _39
REMARK   17  A    between atoms: _38  and  _41
REMARK   18  A    between atoms: _41  and  _42
REMARK   19  A    between atoms: _45  and  _47
REMARK   20  A    between atoms: _47  and  _48
REMARK   21  A    between atoms: _47  and  _50
REMARK   22  A    between atoms: _50  and  _51
REMARK   23  A    between atoms: _54  and  _56
REMARK   24  A    between atoms: _56  and  _57
REMARK   25  A    between atoms: _59  and  _61
REMARK   26  A    between atoms: _61  and  _62
REMARK   27  A    between atoms: _65  and  _67
REMARK   28  A    between atoms: _67  and  _68
REMARK   29  A    between atoms: _67  and  _70
REMARK   30  A    between atoms: _70  and  _71
REMARK   31  A    between atoms: _74  and  _76
REMARK   32  A    between atoms: _76  and  _77
REMARK   33  A    between atoms: _76  and  _79
REMARK   34  A    between atoms: _79  and  _80
REMARK   35  A    between atoms: _83  and  _85
REMARK   36  A    between atoms: _85  and  _86
REMARK   37  A    between atoms: _85  and  _88
REMARK   38  A    between atoms: _88  and  _89
REMARK   39  A    between atoms: _92  and  _94
REMARK   40  A    between atoms: _94  and  _95
REMARK   41  A    between atoms: _94  and  _97
REMARK   42  A    between atoms: _100  and  _102
REMARK   43  A    between atoms: _102  and  _103
REMARK   44  A    between atoms: _102  and  _105
REMARK   45  A    between atoms: _105  and  _106
REMARK   46  A    between atoms: _106  and  _107
REMARK   47  A    between atoms: _107  and  _108
REMARK   48  A    between atoms: _108  and  _109
REMARK   49  A    between atoms: _113  and  _115
REMARK   50  A    between atoms: _115  and  _116
REMARK   51  A    between atoms: _115  and  _118
REMARK   52  A    between atoms: _118  and  _119
REMARK   53  A    between atoms: _119  and  _120
REMARK   54  A    between atoms: _122  and  _124
REMARK   55  A    between atoms: _124  and  _125
REMARK   56  A    between atoms: _124  and  _127
REMARK   57  A    between atoms: _127  and  _128
REMARK   58  A    between atoms: _131  and  _133
REMARK   59  A    between atoms: _133  and  _134
REMARK   60  A    between atoms: _136  and  _138
REMARK   61  A    between atoms: _138  and  _139
REMARK   62  A    between atoms: _141  and  _143
REMARK   63  A    between atoms: _143  and  _144
REMARK   64  A    between atoms: _143  and  _146
REMARK   65  A    between atoms: _144  and  _145
REMARK   66  A    between atoms: _144  and  _150
REMARK   67  A    between atoms: _146  and  _147
REMARK   68  A    between atoms: _150  and  _152
REMARK   69  A    between atoms: _152  and  _153
REMARK   70  A    between atoms: _155  and  _157
REMARK   71  A    between atoms: _157  and  _158
REMARK   72  A    between atoms: _160  and  _162
REMARK   73  A    between atoms: _162  and  _163
REMARK   74  A    between atoms: _162  and  _165
REMARK   75  A    between atoms: _165  and  _166
REMARK   76  A    between atoms: _172  and  _174
REMARK   77  A    between atoms: _174  and  _175
REMARK   78  A    between atoms: _174  and  _177
REMARK   79  A    between atoms: _177  and  _178
REMARK   80  A    between atoms: _181  and  _183
REMARK   81  A    between atoms: _183  and  _184
REMARK   82  A    between atoms: _183  and  _186
REMARK   83  A    between atoms: _186  and  _187
REMARK   84  A    between atoms: _190  and  _192
REMARK   85  A    between atoms: _192  and  _193
REMARK   86  A    between atoms: _192  and  _195
REMARK   87  A    between atoms: _195  and  _196
REMARK   88  A    between atoms: _200  and  _201
REMARK   89  A    between atoms: _206  and  _208
REMARK   90  A    between atoms: _208  and  _209
REMARK   91  A    between atoms: _208  and  _211
REMARK   92  A    between atoms: _214  and  _216
REMARK   93  A    between atoms: _216  and  _217
REMARK   94  A    between atoms: _216  and  _219
REMARK   95  A    between atoms: _219  and  _220
REMARK   96  A    between atoms: _225  and  _227
REMARK   97  A    between atoms: _227  and  _228
REMARK   98  A    between atoms: _227  and  _230
REMARK   99  A    between atoms: _230  and  _231
REMARK  100  A    between atoms: _234  and  _236
REMARK  101  A    between atoms: _236  and  _237
REMARK  102  A    between atoms: _239  and  _241
REMARK  103  A    between atoms: _241  and  _242
REMARK  104  A    between atoms: _241  and  _244
REMARK  105  A    between atoms: _244  and  _245
REMARK  106  A    between atoms: _245  and  _246
REMARK  107  A    between atoms: _246  and  _247
REMARK  108  A    between atoms: _256  and  _258
REMARK  109  A    between atoms: _258  and  _259
REMARK  110  A    between atoms: _258  and  _261
REMARK  111  A    between atoms: _261  and  _262
REMARK  112  A    between atoms: _267  and  _269
REMARK  113  A    between atoms: _269  and  _270
REMARK  114  A    between atoms: _269  and  _272
REMARK  115  A    between atoms: _272  and  _273
REMARK  116  A    between atoms: _273  and  _274
REMARK  117  A    between atoms: _274  and  _275
REMARK  118  A    between atoms: _284  and  _286
REMARK  119  A    between atoms: _286  and  _287
REMARK  120  A    between atoms: _286  and  _289
REMARK  121  A    between atoms: _289  and  _290
REMARK  122  A    between atoms: _293  and  _295
REMARK  123  A    between atoms: _295  and  _296
REMARK  124  A    between atoms: _295  and  _298
REMARK  125  A    between atoms: _298  and  _299
REMARK  126  A    between atoms: _302  and  _304
REMARK  127  A    between atoms: _304  and  _305
REMARK  128  A    between atoms: _304  and  _307
REMARK  129  A    between atoms: _307  and  _308
REMARK  130  A    between atoms: _311  and  _313
REMARK  131  A    between atoms: _313  and  _314
REMARK  132  A    between atoms: _313  and  _316
REMARK  133  A    between atoms: _316  and  _317
REMARK  134  A    between atoms: _320  and  _322
REMARK  135  A    between atoms: _322  and  _323
REMARK  136  A    between atoms: _325  and  _327
REMARK  137  A    between atoms: _327  and  _328
REMARK  138  A    between atoms: _331  and  _333
REMARK  139  A    between atoms: _333  and  _334
REMARK  140  A    between atoms: _333  and  _336
REMARK  141  A    between atoms: _336  and  _337
REMARK  142  A    between atoms: _340  and  _342
REMARK  143  A    between atoms: _342  and  _343
REMARK  144  A    between atoms: _342  and  _345
REMARK  145  A    between atoms: _345  and  _346
REMARK  146  A    between atoms: _349  and  _351
REMARK  147  A    between atoms: _351  and  _352
REMARK  148  A    between atoms: _351  and  _354
REMARK  149  A    between atoms: _354  and  _355
REMARK  150  A    between atoms: _358  and  _360
REMARK  151  A    between atoms: _360  and  _361
REMARK  152  A    between atoms: _360  and  _363
REMARK  153  A    between atoms: _366  and  _368
REMARK  154  A    between atoms: _368  and  _369
REMARK  155  A    between atoms: _368  and  _371
REMARK  156  A    between atoms: _371  and  _372
REMARK  157  A    between atoms: _372  and  _373
REMARK  158  A    between atoms: _373  and  _374
REMARK  159  A    between atoms: _374  and  _375
REMARK  160  A    between atoms: _379  and  _381
REMARK  161  A    between atoms: _381  and  _382
REMARK  162  A    between atoms: _381  and  _384
REMARK  163  A    between atoms: _384  and  _385
REMARK  164  A    between atoms: _385  and  _386
REMARK  165  A    between atoms: _388  and  _390
REMARK  166  A    between atoms: _390  and  _391
REMARK  167  A    between atoms: _390  and  _393
REMARK  168  A    between atoms: _393  and  _394
REMARK  169  A    between atoms: _397  and  _399
REMARK  170  A    between atoms: _399  and  _400
REMARK  171  A    between atoms: _402  and  _404
REMARK  172  A    between atoms: _404  and  _405
REMARK  173  A    between atoms: _407  and  _409
REMARK  174  A    between atoms: _409  and  _410
REMARK  175  A    between atoms: _409  and  _412
REMARK  176  A    between atoms: _412  and  _413
REMARK  177  A    between atoms: _416  and  _418
REMARK  178  A    between atoms: _418  and  _419
REMARK  179  A    between atoms: _421  and  _423
REMARK  180  A    between atoms: _423  and  _424
REMARK  181  A    between atoms: _426  and  _428
REMARK  182  A    between atoms: _428  and  _429
REMARK  183  A    between atoms: _428  and  _431
REMARK  184  A    between atoms: _431  and  _432
REMARK  185  A    between atoms: _438  and  _440
REMARK  186  A    between atoms: _440  and  _441
REMARK  187  A    between atoms: _440  and  _443
REMARK  188  A    between atoms: _443  and  _444
REMARK  189  A    between atoms: _447  and  _449
REMARK  190  A    between atoms: _449  and  _450
REMARK  191  A    between atoms: _449  and  _452
REMARK  192  A    between atoms: _455  and  _457
REMARK  193  A    between atoms: _457  and  _458
REMARK  194  A    between atoms: _457  and  _460
REMARK  195  A    between atoms: _460  and  _461
REMARK  196  A    between atoms: _465  and  _466
REMARK  197  A    between atoms: _471  and  _473
REMARK  198  A    between atoms: _473  and  _474
REMARK  199  A    between atoms: _473  and  _476
REMARK  200  A    between atoms: _476  and  _477
REMARK  201  A    between atoms: _481  and  _482
REMARK  202  A    between atoms: _487  and  _489
REMARK  203  A    between atoms: _489  and  _490
REMARK  204  A    between atoms: _489  and  _492
REMARK  205  A    between atoms: _495  and  _497
REMARK  206  A    between atoms: _497  and  _498
REMARK  207  A    between atoms: _497  and  _500
REMARK  208  A    between atoms: _500  and  _501
REMARK  209  A    between atoms: _506  and  _508
REMARK  210  A    between atoms: _508  and  _509
REMARK  211  A    between atoms: _508  and  _511
REMARK  212  A    between atoms: _511  and  _512
REMARK  213  A    between atoms: _515  and  _517
REMARK  214  A    between atoms: _517  and  _518
REMARK  215  A    between atoms: _517  and  _520
REMARK  216  A    between atoms: _520  and  _521
REMARK  217  A    between atoms: _524  and  _526
REMARK  218  A    between atoms: _526  and  _527
REMARK  219  A    between atoms: _529  and  _531
REMARK  220  A    between atoms: _531  and  _532
REMARK  221  A    between atoms: _531  and  _534
REMARK  222  A    between atoms: _534  and  _535
REMARK  223  A    between atoms: _535  and  _536
REMARK  224  A    between atoms: _536  and  _537
REMARK  225  A    between atoms: _546  and  _548
REMARK  226  A    between atoms: _548  and  _549
REMARK  227  A    between atoms: _548  and  _551
REMARK  228  A    between atoms: _551  and  _552
REMARK                            x       y       z     vdW  Elec       q    Type
REMARK                         _______ _______ _______ _____ _____    ______ ____
ROOT
ATOM      1  O   HOH     1      25.393  30.485  17.275  0.00  0.00    +0.000 OA
ENDROOT
TORSDOF 0
REMARK  Name = ../refined-set-2016/3ok9/3ok9_pocket.pdb
REMARK  228 active torsions:
REMARK  status: ('A' for Active; 'I' for Inactive)
REMARK    1  A    between atoms: _1  and  _3
REMARK    2  A    between atoms: _3  and  _4
REMARK    3  A    between atoms: _3  and  _6
REMARK    4  A    between atoms: _6  and  _7
REMARK    5  A    between atoms: _7  and  _8
REMARK    6  A    between atoms: _8  and  _9
REMARK    7  A    between atoms: _18  and  _20
REMARK    8  A    between atoms: _20  and  _21
REMARK    9  A    between atoms: _20  and  _23
REMARK   10  A    between atoms: _23  and  _24
REMARK   11  A    between atoms: _27  and  _29
REMARK   12  A    between atoms: _29  and  _30
REMARK   13  A    between atoms: _29  and  _32
REMARK   14  A    between atoms: _32  and  _33
REMARK   15  A    between atoms: _36  and  _38
REMARK   16  A    between atoms: _38  and  _39
REMARK   17  A    between atoms: _38  and  _41
REMARK   18  A    between atoms: _41  and  _42
REMARK   19  A    between atoms: _45  and  _47
REMARK   20  A    between atoms: _47  and  _48
REMARK   21  A    between atoms: _47  and  _50
REMARK   22  A    between atoms: _50  and  _51
REMARK   23  A    between atoms: _54  and  _56
REMARK   24  A    between atoms: _56  and  _57
REMARK   25  A    between atoms: _59  and  _61
REMARK   26  A    between atoms: _61  and  _62
REMARK   27  A    between atoms: _65  and  _67
REMARK   28  A    between atoms: _67  and  _68
REMARK   29  A    between atoms: _67  and  _70
REMARK   30  A    between atoms: _70  and  _71
REMARK   31  A    between atoms: _74  and  _76
REMARK   32  A    between atoms: _76  and  _77
REMARK   33  A    between atoms: _76  and  _79
REMARK   34  A    between atoms: _79  and  _80
REMARK   35  A    between atoms: _83  and  _85
REMARK   36  A    between atoms: _85  and  _86
REMARK   37  A    between atoms: _85  and  _88
REMARK   38  A    between atoms: _88  and  _89
REMARK   39  A    between atoms: _92  and  _94
REMARK   40  A    between atoms: _94  and  _95
REMARK   41  A    between atoms: _94  and  _97
REMARK   42  A    between atoms: _100  and  _102
REMARK   43  A    between atoms: _102  and  _103
REMARK   44  A    between atoms: _102  and  _105
REMARK   45  A    between atoms: _105  and  _106
REMARK   46  A    between atoms: _106  and  _107
REMARK   47  A    between atoms: _107  and  _108
REMARK   48  A    between atoms: _108  and  _109
REMARK   49  A    between atoms: _113  and  _115
REMARK   50  A    between atoms: _115  and  _116
REMARK   51  A    between atoms: _115  and  _118
REMARK   52  A    between atoms: _118  and  _119
REMARK   53  A    between atoms: _119  and  _120
REMARK   54  A    between atoms: _122  and  _124
REMARK   55  A    between atoms: _124  and  _125
REMARK   56  A    between atoms: _124  and  _127
REMARK   57  A    between atoms: _127  and  _128
REMARK   58  A    between atoms: _131  and  _133
REMARK   59  A    between atoms: _133  and  _134
REMARK   60  A    between atoms: _136  and  _138
REMARK   61  A    between atoms: _138  and  _139
REMARK   62  A    between atoms: _141  and  _143
REMARK   63  A    between atoms: _143  and  _144
REMARK   64  A    between atoms: _143  and  _146
REMARK   65  A    between atoms: _144  and  _145
REMARK   66  A    between atoms: _144  and  _150
REMARK   67  A    between atoms: _146  and  _147
REMARK   68  A    between atoms: _150  and  _152
REMARK   69  A    between atoms: _152  and  _153
REMARK   70  A    between atoms: _155  and  _157
REMARK   71  A    between atoms: _157  and  _158
REMARK   72  A    between atoms: _160  and  _162
REMARK   73  A    between atoms: _162  and  _163
REMARK   74  A    between atoms: _162  and  _165
REMARK   75  A    between atoms: _165  and  _166
REMARK   76  A    between atoms: _172  and  _174
REMARK   77  A    between atoms: _174  and  _175
REMARK   78  A    between atoms: _174  and  _177
REMARK   79  A    between atoms: _177  and  _178
REMARK   80  A    between atoms: _181  and  _183
REMARK   81  A    between atoms: _183  and  _184
REMARK   82  A    between atoms: _183  and  _186
REMARK   83  A    between atoms: _186  and  _187
REMARK   84  A    between atoms: _190  and  _192
REMARK   85  A    between atoms: _192  and  _193
REMARK   86  A    between atoms: _192  and  _195
REMARK   87  A    between atoms: _195  and  _196
REMARK   88  A    between atoms: _200  and  _201
REMARK   89  A    between atoms: _206  and  _208
REMARK   90  A    between atoms: _208  and  _209
REMARK   91  A    between atoms: _208  and  _211
REMARK   92  A    between atoms: _214  and  _216
REMARK   93  A    between atoms: _216  and  _217
REMARK   94  A    between atoms: _216  and  _219
REMARK   95  A    between atoms: _219  and  _220
REMARK   96  A    between atoms: _225  and  _227
REMARK   97  A    between atoms: _227  and  _228
REMARK   98  A    between atoms: _227  and  _230
REMARK   99  A    between atoms: _230  and  _231
REMARK  100  A    between atoms: _234  and  _236
REMARK  101  A    between atoms: _236  and  _237
REMARK  102  A    between atoms: _239  and  _241
REMARK  103  A    between atoms: _241  and  _242
REMARK  104  A    between atoms: _241  and  _244
REMARK  105  A    between atoms: _244  and  _245
REMARK  106  A    between atoms: _245  and  _246
REMARK  107  A    between atoms: _246  and  _247
REMARK  108  A    between atoms: _256  and  _258
REMARK  109  A    between atoms: _258  and  _259
REMARK  110  A    between atoms: _258  and  _261
REMARK  111  A    between atoms: _261  and  _262
REMARK  112  A    between atoms: _267  and  _269
REMARK  113  A    between atoms: _269  and  _270
REMARK  114  A    between atoms: _269  and  _272
REMARK  115  A    between atoms: _272  and  _273
REMARK  116  A    between atoms: _273  and  _274
REMARK  117  A    between atoms: _274  and  _275
REMARK  118  A    between atoms: _284  and  _286
REMARK  119  A    between atoms: _286  and  _287
REMARK  120  A    between atoms: _286  and  _289
REMARK  121  A    between atoms: _289  and  _290
REMARK  122  A    between atoms: _293  and  _295
REMARK  123  A    between atoms: _295  and  _296
REMARK  124  A    between atoms: _295  and  _298
REMARK  125  A    between atoms: _298  and  _299
REMARK  126  A    between atoms: _302  and  _304
REMARK  127  A    between atoms: _304  and  _305
REMARK  128  A    between atoms: _304  and  _307
REMARK  129  A    between atoms: _307  and  _308
REMARK  130  A    between atoms: _311  and  _313
REMARK  131  A    between atoms: _313  and  _314
REMARK  132  A    between atoms: _313  and  _316
REMARK  133  A    between atoms: _316  and  _317
REMARK  134  A    between atoms: _320  and  _322
REMARK  135  A    between atoms: _322  and  _323
REMARK  136  A    between atoms: _325  and  _327
REMARK  137  A    between atoms: _327  and  _328
REMARK  138  A    between atoms: _331  and  _333
REMARK  139  A    between atoms: _333  and  _334
REMARK  140  A    between atoms: _333  and  _336
REMARK  141  A    between atoms: _336  and  _337
REMARK  142  A    between atoms: _340  and  _342
REMARK  143  A    between atoms: _342  and  _343
REMARK  144  A    between atoms: _342  and  _345
REMARK  145  A    between atoms: _345  and  _346
REMARK  146  A    between atoms: _349  and  _351
REMARK  147  A    between atoms: _351  and  _352
REMARK  148  A    between atoms: _351  and  _354
REMARK  149  A    between atoms: _354  and  _355
REMARK  150  A    between atoms: _358  and  _360
REMARK  151  A    between atoms: _360  and  _361
REMARK  152  A    between atoms: _360  and  _363
REMARK  153  A    between atoms: _366  and  _368
REMARK  154  A    between atoms: _368  and  _369
REMARK  155  A    between atoms: _368  and  _371
REMARK  156  A    between atoms: _371  and  _372
REMARK  157  A    between atoms: _372  and  _373
REMARK  158  A    between atoms: _373  and  _374
REMARK  159  A    between atoms: _374  and  _375
REMARK  160  A    between atoms: _379  and  _381
REMARK  161  A    between atoms: _381  and  _382
REMARK  162  A    between atoms: _381  and  _384
REMARK  163  A    between atoms: _384  and  _385
REMARK  164  A    between atoms: _385  and  _386
REMARK  165  A    between atoms: _388  and  _390
REMARK  166  A    between atoms: _390  and  _391
REMARK  167  A    between atoms: _390  and  _393
REMARK  168  A    between atoms: _393  and  _394
REMARK  169  A    between atoms: _397  and  _399
REMARK  170  A    between atoms: _399  and  _400
REMARK  171  A    between atoms: _402  and  _404
REMARK  172  A    between atoms: _404  and  _405
REMARK  173  A    between atoms: _407  and  _409
REMARK  174  A    between atoms: _409  and  _410
REMARK  175  A    between atoms: _409  and  _412
REMARK  176  A    between atoms: _412  and  _413
REMARK  177  A    between atoms: _416  and  _418
REMARK  178  A    between atoms: _418  and  _419
REMARK  179  A    between atoms: _421  and  _423
REMARK  180  A    between atoms: _423  and  _424
REMARK  181  A    between atoms: _426  and  _428
REMARK  182  A    between atoms: _428  and  _429
REMARK  183  A    between atoms: _428  and  _431
REMARK  184  A    between atoms: _431  and  _432
REMARK  185  A    between atoms: _438  and  _440
REMARK  186  A    between atoms: _440  and  _441
REMARK  187  A    between atoms: _440  and  _443
REMARK  188  A    between atoms: _443  and  _444
REMARK  189  A    between atoms: _447  and  _449
REMARK  190  A    between atoms: _449  and  _450
REMARK  191  A    between atoms: _449  and  _452
REMARK  192  A    between atoms: _455  and  _457
REMARK  193  A    between atoms: _457  and  _458
REMARK  194  A    between atoms: _457  and  _460
REMARK  195  A    between atoms: _460  and  _461
REMARK  196  A    between atoms: _465  and  _466
REMARK  197  A    between atoms: _471  and  _473
REMARK  198  A    between atoms: _473  and  _474
REMARK  199  A    between atoms: _473  and  _476
REMARK  200  A    between atoms: _476  and  _477
REMARK  201  A    between atoms: _481  and  _482
REMARK  202  A    between atoms: _487  and  _489
REMARK  203  A    between atoms: _489  and  _490
REMARK  204  A    between atoms: _489  and  _492
REMARK  205  A    between atoms: _495  and  _497
REMARK  206  A    between atoms: _497  and  _498
REMARK  207  A    between atoms: _497  and  _500
REMARK  208  A    between atoms: _500  and  _501
REMARK  209  A    between atoms: _506  and  _508
REMARK  210  A    between atoms: _508  and  _509
REMARK  211  A    between atoms: _508  and  _511
REMARK  212  A    between atoms: _511  and  _512
REMARK  213  A    between atoms: _515  and  _517
REMARK  214  A    between atoms: _517  and  _518
REMARK  215  A    between atoms: _517  and  _520
REMARK  216  A    between atoms: _520  and  _521
REMARK  217  A    between atoms: _524  and  _526
REMARK  218  A    between atoms: _526  and  _527
REMARK  219  A    between atoms: _529  and  _531
REMARK  220  A    between atoms: _531  and  _532
REMARK  221  A    between atoms: _531  and  _534
REMARK  222  A    between atoms: _534  and  _535
REMARK  223  A    between atoms: _535  and  _536
REMARK  224  A    between atoms: _536  and  _537
REMARK  225  A    between atoms: _546  and  _548
REMARK  226  A    between atoms: _548  and  _549
REMARK  227  A    between atoms: _548  and  _551
REMARK  228  A    between atoms: _551  and  _552
REMARK                            x       y       z     vdW  Elec       q    Type
REMARK                         _______ _______ _______ _____ _____    ______ ____
ROOT
ATOM      1  O   HOH     1       4.495  21.538  11.179  0.00  0.00    +0.000 OA
ENDROOT
TORSDOF 0
REMARK  Name = ../refined-set-2016/3ok9/3ok9_pocket.pdb
REMARK  228 active torsions:
REMARK  status: ('A' for Active; 'I' for Inactive)
REMARK    1  A    between atoms: _1  and  _3
REMARK    2  A    between atoms: _3  and  _4
REMARK    3  A    between atoms: _3  and  _6
REMARK    4  A    between atoms: _6  and  _7
REMARK    5  A    between atoms: _7  and  _8
REMARK    6  A    between atoms: _8  and  _9
REMARK    7  A    between atoms: _18  and  _20
REMARK    8  A    between atoms: _20  and  _21
REMARK    9  A    between atoms: _20  and  _23
REMARK   10  A    between atoms: _23  and  _24
REMARK   11  A    between atoms: _27  and  _29
REMARK   12  A    between atoms: _29  and  _30
REMARK   13  A    between atoms: _29  and  _32
REMARK   14  A    between atoms: _32  and  _33
REMARK   15  A    between atoms: _36  and  _38
REMARK   16  A    between atoms: _38  and  _39
REMARK   17  A    between atoms: _38  and  _41
REMARK   18  A    between atoms: _41  and  _42
REMARK   19  A    between atoms: _45  and  _47
REMARK   20  A    between atoms: _47  and  _48
REMARK   21  A    between atoms: _47  and  _50
REMARK   22  A    between atoms: _50  and  _51
REMARK   23  A    between atoms: _54  and  _56
REMARK   24  A    between atoms: _56  and  _57
REMARK   25  A    between atoms: _59  and  _61
REMARK   26  A    between atoms: _61  and  _62
REMARK   27  A    between atoms: _65  and  _67
REMARK   28  A    between atoms: _67  and  _68
REMARK   29  A    between atoms: _67  and  _70
REMARK   30  A    between atoms: _70  and  _71
REMARK   31  A    between atoms: _74  and  _76
REMARK   32  A    between atoms: _76  and  _77
REMARK   33  A    between atoms: _76  and  _79
REMARK   34  A    between atoms: _79  and  _80
REMARK   35  A    between atoms: _83  and  _85
REMARK   36  A    between atoms: _85  and  _86
REMARK   37  A    between atoms: _85  and  _88
REMARK   38  A    between atoms: _88  and  _89
REMARK   39  A    between atoms: _92  and  _94
REMARK   40  A    between atoms: _94  and  _95
REMARK   41  A    between atoms: _94  and  _97
REMARK   42  A    between atoms: _100  and  _102
REMARK   43  A    between atoms: _102  and  _103
REMARK   44  A    between atoms: _102  and  _105
REMARK   45  A    between atoms: _105  and  _106
REMARK   46  A    between atoms: _106  and  _107
REMARK   47  A    between atoms: _107  and  _108
REMARK   48  A    between atoms: _108  and  _109
REMARK   49  A    between atoms: _113  and  _115
REMARK   50  A    between atoms: _115  and  _116
REMARK   51  A    between atoms: _115  and  _118
REMARK   52  A    between atoms: _118  and  _119
REMARK   53  A    between atoms: _119  and  _120
REMARK   54  A    between atoms: _122  and  _124
REMARK   55  A    between atoms: _124  and  _125
REMARK   56  A    between atoms: _124  and  _127
REMARK   57  A    between atoms: _127  and  _128
REMARK   58  A    between atoms: _131  and  _133
REMARK   59  A    between atoms: _133  and  _134
REMARK   60  A    between atoms: _136  and  _138
REMARK   61  A    between atoms: _138  and  _139
REMARK   62  A    between atoms: _141  and  _143
REMARK   63  A    between atoms: _143  and  _144
REMARK   64  A    between atoms: _143  and  _146
REMARK   65  A    between atoms: _144  and  _145
REMARK   66  A    between atoms: _144  and  _150
REMARK   67  A    between atoms: _146  and  _147
REMARK   68  A    between atoms: _150  and  _152
REMARK   69  A    between atoms: _152  and  _153
REMARK   70  A    between atoms: _155  and  _157
REMARK   71  A    between atoms: _157  and  _158
REMARK   72  A    between atoms: _160  and  _162
REMARK   73  A    between atoms: _162  and  _163
REMARK   74  A    between atoms: _162  and  _165
REMARK   75  A    between atoms: _165  and  _166
REMARK   76  A    between atoms: _172  and  _174
REMARK   77  A    between atoms: _174  and  _175
REMARK   78  A    between atoms: _174  and  _177
REMARK   79  A    between atoms: _177  and  _178
REMARK   80  A    between atoms: _181  and  _183
REMARK   81  A    between atoms: _183  and  _184
REMARK   82  A    between atoms: _183  and  _186
REMARK   83  A    between atoms: _186  and  _187
REMARK   84  A    between atoms: _190  and  _192
REMARK   85  A    between atoms: _192  and  _193
REMARK   86  A    between atoms: _192  and  _195
REMARK   87  A    between atoms: _195  and  _196
REMARK   88  A    between atoms: _200  and  _201
REMARK   89  A    between atoms: _206  and  _208
REMARK   90  A    between atoms: _208  and  _209
REMARK   91  A    between atoms: _208  and  _211
REMARK   92  A    between atoms: _214  and  _216
REMARK   93  A    between atoms: _216  and  _217
REMARK   94  A    between atoms: _216  and  _219
REMARK   95  A    between atoms: _219  and  _220
REMARK   96  A    between atoms: _225  and  _227
REMARK   97  A    between atoms: _227  and  _228
REMARK   98  A    between atoms: _227  and  _230
REMARK   99  A    between atoms: _230  and  _231
REMARK  100  A    between atoms: _234  and  _236
REMARK  101  A    between atoms: _236  and  _237
REMARK  102  A    between atoms: _239  and  _241
REMARK  103  A    between atoms: _241  and  _242
REMARK  104  A    between atoms: _241  and  _244
REMARK  105  A    between atoms: _244  and  _245
REMARK  106  A    between atoms: _245  and  _246
REMARK  107  A    between atoms: _246  and  _247
REMARK  108  A    between atoms: _256  and  _258
REMARK  109  A    between atoms: _258  and  _259
REMARK  110  A    between atoms: _258  and  _261
REMARK  111  A    between atoms: _261  and  _262
REMARK  112  A    between atoms: _267  and  _269
REMARK  113  A    between atoms: _269  and  _270
REMARK  114  A    between atoms: _269  and  _272
REMARK  115  A    between atoms: _272  and  _273
REMARK  116  A    between atoms: _273  and  _274
REMARK  117  A    between atoms: _274  and  _275
REMARK  118  A    between atoms: _284  and  _286
REMARK  119  A    between atoms: _286  and  _287
REMARK  120  A    between atoms: _286  and  _289
REMARK  121  A    between atoms: _289  and  _290
REMARK  122  A    between atoms: _293  and  _295
REMARK  123  A    between atoms: _295  and  _296
REMARK  124  A    between atoms: _295  and  _298
REMARK  125  A    between atoms: _298  and  _299
REMARK  126  A    between atoms: _302  and  _304
REMARK  127  A    between atoms: _304  and  _305
REMARK  128  A    between atoms: _304  and  _307
REMARK  129  A    between atoms: _307  and  _308
REMARK  130  A    between atoms: _311  and  _313
REMARK  131  A    between atoms: _313  and  _314
REMARK  132  A    between atoms: _313  and  _316
REMARK  133  A    between atoms: _316  and  _317
REMARK  134  A    between atoms: _320  and  _322
REMARK  135  A    between atoms: _322  and  _323
REMARK  136  A    between atoms: _325  and  _327
REMARK  137  A    between atoms: _327  and  _328
REMARK  138  A    between atoms: _331  and  _333
REMARK  139  A    between atoms: _333  and  _334
REMARK  140  A    between atoms: _333  and  _336
REMARK  141  A    between atoms: _336  and  _337
REMARK  142  A    between atoms: _340  and  _342
REMARK  143  A    between atoms: _342  and  _343
REMARK  144  A    between atoms: _342  and  _345
REMARK  145  A    between atoms: _345  and  _346
REMARK  146  A    between atoms: _349  and  _351
REMARK  147  A    between atoms: _351  and  _352
REMARK  148  A    between atoms: _351  and  _354
REMARK  149  A    between atoms: _354  and  _355
REMARK  150  A    between atoms: _358  and  _360
REMARK  151  A    between atoms: _360  and  _361
REMARK  152  A    between atoms: _360  and  _363
REMARK  153  A    between atoms: _366  and  _368
REMARK  154  A    between atoms: _368  and  _369
REMARK  155  A    between atoms: _368  and  _371
REMARK  156  A    between atoms: _371  and  _372
REMARK  157  A    between atoms: _372  and  _373
REMARK  158  A    between atoms: _373  and  _374
REMARK  159  A    between atoms: _374  and  _375
REMARK  160  A    between atoms: _379  and  _381
REMARK  161  A    between atoms: _381  and  _382
REMARK  162  A    between atoms: _381  and  _384
REMARK  163  A    between atoms: _384  and  _385
REMARK  164  A    between atoms: _385  and  _386
REMARK  165  A    between atoms: _388  and  _390
REMARK  166  A    between atoms: _390  and  _391
REMARK  167  A    between atoms: _390  and  _393
REMARK  168  A    between atoms: _393  and  _394
REMARK  169  A    between atoms: _397  and  _399
REMARK  170  A    between atoms: _399  and  _400
REMARK  171  A    between atoms: _402  and  _404
REMARK  172  A    between atoms: _404  and  _405
REMARK  173  A    between atoms: _407  and  _409
REMARK  174  A    between atoms: _409  and  _410
REMARK  175  A    between atoms: _409  and  _412
REMARK  176  A    between atoms: _412  and  _413
REMARK  177  A    between atoms: _416  and  _418
REMARK  178  A    between atoms: _418  and  _419
REMARK  179  A    between atoms: _421  and  _423
REMARK  180  A    between atoms: _423  and  _424
REMARK  181  A    between atoms: _426  and  _428
REMARK  182  A    between atoms: _428  and  _429
REMARK  183  A    between atoms: _428  and  _431
REMARK  184  A    between atoms: _431  and  _432
REMARK  185  A    between atoms: _438  and  _440
REMARK  186  A    between atoms: _440  and  _441
REMARK  187  A    between atoms: _440  and  _443
REMARK  188  A    between atoms: _443  and  _444
REMARK  189  A    between atoms: _447  and  _449
REMARK  190  A    between atoms: _449  and  _450
REMARK  191  A    between atoms: _449  and  _452
REMARK  192  A    between atoms: _455  and  _457
REMARK  193  A    between atoms: _457  and  _458
REMARK  194  A    between atoms: _457  and  _460
REMARK  195  A    between atoms: _460  and  _461
REMARK  196  A    between atoms: _465  and  _466
REMARK  197  A    between atoms: _471  and  _473
REMARK  198  A    between atoms: _473  and  _474
REMARK  199  A    between atoms: _473  and  _476
REMARK  200  A    between atoms: _476  and  _477
REMARK  201  A    between atoms: _481  and  _482
REMARK  202  A    between atoms: _487  and  _489
REMARK  203  A    between atoms: _489  and  _490
REMARK  204  A    between atoms: _489  and  _492
REMARK  205  A    between atoms: _495  and  _497
REMARK  206  A    between atoms: _497  and  _498
REMARK  207  A    between atoms: _497  and  _500
REMARK  208  A    between atoms: _500  and  _501
REMARK  209  A    between atoms: _506  and  _508
REMARK  210  A    between atoms: _508  and  _509
REMARK  211  A    between atoms: _508  and  _511
REMARK  212  A    between atoms: _511  and  _512
REMARK  213  A    between atoms: _515  and  _517
REMARK  214  A    between atoms: _517  and  _518
REMARK  215  A    between atoms: _517  and  _520
REMARK  216  A    between atoms: _520  and  _521
REMARK  217  A    between atoms: _524  and  _526
REMARK  218  A    between atoms: _526  and  _527
REMARK  219  A    between atoms: _529  and  _531
REMARK  220  A    between atoms: _531  and  _532
REMARK  221  A    between atoms: _531  and  _534
REMARK  222  A    between atoms: _534  and  _535
REMARK  223  A    between atoms: _535  and  _536
REMARK  224  A    between atoms: _536  and  _537
REMARK  225  A    between atoms: _546  and  _548
REMARK  226  A    between atoms: _548  and  _549
REMARK  227  A    between atoms: _548  and  _551
REMARK  228  A    between atoms: _551  and  _552
REMARK                            x       y       z     vdW  Elec       q    Type
REMARK                         _______ _______ _______ _____ _____    ______ ____
ROOT
ATOM      1  O   HOH     1      23.215  34.308  11.720  0.00  0.00    +0.000 OA
ENDROOT
TORSDOF 0
REMARK  Name = ../refined-set-2016/3ok9/3ok9_pocket.pdb
REMARK  228 active torsions:
REMARK  status: ('A' for Active; 'I' for Inactive)
REMARK    1  A    between atoms: _1  and  _3
REMARK    2  A    between atoms: _3  and  _4
REMARK    3  A    between atoms: _3  and  _6
REMARK    4  A    between atoms: _6  and  _7
REMARK    5  A    between atoms: _7  and  _8
REMARK    6  A    between atoms: _8  and  _9
REMARK    7  A    between atoms: _18  and  _20
REMARK    8  A    between atoms: _20  and  _21
REMARK    9  A    between atoms: _20  and  _23
REMARK   10  A    between atoms: _23  and  _24
REMARK   11  A    between atoms: _27  and  _29
REMARK   12  A    between atoms: _29  and  _30
REMARK   13  A    between atoms: _29  and  _32
REMARK   14  A    between atoms: _32  and  _33
REMARK   15  A    between atoms: _36  and  _38
REMARK   16  A    between atoms: _38  and  _39
REMARK   17  A    between atoms: _38  and  _41
REMARK   18  A    between atoms: _41  and  _42
REMARK   19  A    between atoms: _45  and  _47
REMARK   20  A    between atoms: _47  and  _48
REMARK   21  A    between atoms: _47  and  _50
REMARK   22  A    between atoms: _50  and  _51
REMARK   23  A    between atoms: _54  and  _56
REMARK   24  A    between atoms: _56  and  _57
REMARK   25  A    between atoms: _59  and  _61
REMARK   26  A    between atoms: _61  and  _62
REMARK   27  A    between atoms: _65  and  _67
REMARK   28  A    between atoms: _67  and  _68
REMARK   29  A    between atoms: _67  and  _70
REMARK   30  A    between atoms: _70  and  _71
REMARK   31  A    between atoms: _74  and  _76
REMARK   32  A    between atoms: _76  and  _77
REMARK   33  A    between atoms: _76  and  _79
REMARK   34  A    between atoms: _79  and  _80
REMARK   35  A    between atoms: _83  and  _85
REMARK   36  A    between atoms: _85  and  _86
REMARK   37  A    between atoms: _85  and  _88
REMARK   38  A    between atoms: _88  and  _89
REMARK   39  A    between atoms: _92  and  _94
REMARK   40  A    between atoms: _94  and  _95
REMARK   41  A    between atoms: _94  and  _97
REMARK   42  A    between atoms: _100  and  _102
REMARK   43  A    between atoms: _102  and  _103
REMARK   44  A    between atoms: _102  and  _105
REMARK   45  A    between atoms: _105  and  _106
REMARK   46  A    between atoms: _106  and  _107
REMARK   47  A    between atoms: _107  and  _108
REMARK   48  A    between atoms: _108  and  _109
REMARK   49  A    between atoms: _113  and  _115
REMARK   50  A    between atoms: _115  and  _116
REMARK   51  A    between atoms: _115  and  _118
REMARK   52  A    between atoms: _118  and  _119
REMARK   53  A    between atoms: _119  and  _120
REMARK   54  A    between atoms: _122  and  _124
REMARK   55  A    between atoms: _124  and  _125
REMARK   56  A    between atoms: _124  and  _127
REMARK   57  A    between atoms: _127  and  _128
REMARK   58  A    between atoms: _131  and  _133
REMARK   59  A    between atoms: _133  and  _134
REMARK   60  A    between atoms: _136  and  _138
REMARK   61  A    between atoms: _138  and  _139
REMARK   62  A    between atoms: _141  and  _143
REMARK   63  A    between atoms: _143  and  _144
REMARK   64  A    between atoms: _143  and  _146
REMARK   65  A    between atoms: _144  and  _145
REMARK   66  A    between atoms: _144  and  _150
REMARK   67  A    between atoms: _146  and  _147
REMARK   68  A    between atoms: _150  and  _152
REMARK   69  A    between atoms: _152  and  _153
REMARK   70  A    between atoms: _155  and  _157
REMARK   71  A    between atoms: _157  and  _158
REMARK   72  A    between atoms: _160  and  _162
REMARK   73  A    between atoms: _162  and  _163
REMARK   74  A    between atoms: _162  and  _165
REMARK   75  A    between atoms: _165  and  _166
REMARK   76  A    between atoms: _172  and  _174
REMARK   77  A    between atoms: _174  and  _175
REMARK   78  A    between atoms: _174  and  _177
REMARK   79  A    between atoms: _177  and  _178
REMARK   80  A    between atoms: _181  and  _183
REMARK   81  A    between atoms: _183  and  _184
REMARK   82  A    between atoms: _183  and  _186
REMARK   83  A    between atoms: _186  and  _187
REMARK   84  A    between atoms: _190  and  _192
REMARK   85  A    between atoms: _192  and  _193
REMARK   86  A    between atoms: _192  and  _195
REMARK   87  A    between atoms: _195  and  _196
REMARK   88  A    between atoms: _200  and  _201
REMARK   89  A    between atoms: _206  and  _208
REMARK   90  A    between atoms: _208  and  _209
REMARK   91  A    between atoms: _208  and  _211
REMARK   92  A    between atoms: _214  and  _216
REMARK   93  A    between atoms: _216  and  _217
REMARK   94  A    between atoms: _216  and  _219
REMARK   95  A    between atoms: _219  and  _220
REMARK   96  A    between atoms: _225  and  _227
REMARK   97  A    between atoms: _227  and  _228
REMARK   98  A    between atoms: _227  and  _230
REMARK   99  A    between atoms: _230  and  _231
REMARK  100  A    between atoms: _234  and  _236
REMARK  101  A    between atoms: _236  and  _237
REMARK  102  A    between atoms: _239  and  _241
REMARK  103  A    between atoms: _241  and  _242
REMARK  104  A    between atoms: _241  and  _244
REMARK  105  A    between atoms: _244  and  _245
REMARK  106  A    between atoms: _245  and  _246
REMARK  107  A    between atoms: _246  and  _247
REMARK  108  A    between atoms: _256  and  _258
REMARK  109  A    between atoms: _258  and  _259
REMARK  110  A    between atoms: _258  and  _261
REMARK  111  A    between atoms: _261  and  _262
REMARK  112  A    between atoms: _267  and  _269
REMARK  113  A    between atoms: _269  and  _270
REMARK  114  A    between atoms: _269  and  _272
REMARK  115  A    between atoms: _272  and  _273
REMARK  116  A    between atoms: _273  and  _274
REMARK  117  A    between atoms: _274  and  _275
REMARK  118  A    between atoms: _284  and  _286
REMARK  119  A    between atoms: _286  and  _287
REMARK  120  A    between atoms: _286  and  _289
REMARK  121  A    between atoms: _289  and  _290
REMARK  122  A    between atoms: _293  and  _295
REMARK  123  A    between atoms: _295  and  _296
REMARK  124  A    between atoms: _295  and  _298
REMARK  125  A    between atoms: _298  and  _299
REMARK  126  A    between atoms: _302  and  _304
REMARK  127  A    between atoms: _304  and  _305
REMARK  128  A    between atoms: _304  and  _307
REMARK  129  A    between atoms: _307  and  _308
REMARK  130  A    between atoms: _311  and  _313
REMARK  131  A    between atoms: _313  and  _314
REMARK  132  A    between atoms: _313  and  _316
REMARK  133  A    between atoms: _316  and  _317
REMARK  134  A    between atoms: _320  and  _322
REMARK  135  A    between atoms: _322  and  _323
REMARK  136  A    between atoms: _325  and  _327
REMARK  137  A    between atoms: _327  and  _328
REMARK  138  A    between atoms: _331  and  _333
REMARK  139  A    between atoms: _333  and  _334
REMARK  140  A    between atoms: _333  and  _336
REMARK  141  A    between atoms: _336  and  _337
REMARK  142  A    between atoms: _340  and  _342
REMARK  143  A    between atoms: _342  and  _343
REMARK  144  A    between atoms: _342  and  _345
REMARK  145  A    between atoms: _345  and  _346
REMARK  146  A    between atoms: _349  and  _351
REMARK  147  A    between atoms: _351  and  _352
REMARK  148  A    between atoms: _351  and  _354
REMARK  149  A    between atoms: _354  and  _355
REMARK  150  A    between atoms: _358  and  _360
REMARK  151  A    between atoms: _360  and  _361
REMARK  152  A    between atoms: _360  and  _363
REMARK  153  A    between atoms: _366  and  _368
REMARK  154  A    between atoms: _368  and  _369
REMARK  155  A    between atoms: _368  and  _371
REMARK  156  A    between atoms: _371  and  _372
REMARK  157  A    between atoms: _372  and  _373
REMARK  158  A    between atoms: _373  and  _374
REMARK  159  A    between atoms: _374  and  _375
REMARK  160  A    between atoms: _379  and  _381
REMARK  161  A    between atoms: _381  and  _382
REMARK  162  A    between atoms: _381  and  _384
REMARK  163  A    between atoms: _384  and  _385
REMARK  164  A    between atoms: _385  and  _386
REMARK  165  A    between atoms: _388  and  _390
REMARK  166  A    between atoms: _390  and  _391
REMARK  167  A    between atoms: _390  and  _393
REMARK  168  A    between atoms: _393  and  _394
REMARK  169  A    between atoms: _397  and  _399
REMARK  170  A    between atoms: _399  and  _400
REMARK  171  A    between atoms: _402  and  _404
REMARK  172  A    between atoms: _404  and  _405
REMARK  173  A    between atoms: _407  and  _409
REMARK  174  A    between atoms: _409  and  _410
REMARK  175  A    between atoms: _409  and  _412
REMARK  176  A    between atoms: _412  and  _413
REMARK  177  A    between atoms: _416  and  _418
REMARK  178  A    between atoms: _418  and  _419
REMARK  179  A    between atoms: _421  and  _423
REMARK  180  A    between atoms: _423  and  _424
REMARK  181  A    between atoms: _426  and  _428
REMARK  182  A    between atoms: _428  and  _429
REMARK  183  A    between atoms: _428  and  _431
REMARK  184  A    between atoms: _431  and  _432
REMARK  185  A    between atoms: _438  and  _440
REMARK  186  A    between atoms: _440  and  _441
REMARK  187  A    between atoms: _440  and  _443
REMARK  188  A    between atoms: _443  and  _444
REMARK  189  A    between atoms: _447  and  _449
REMARK  190  A    between atoms: _449  and  _450
REMARK  191  A    between atoms: _449  and  _452
REMARK  192  A    between atoms: _455  and  _457
REMARK  193  A    between atoms: _457  and  _458
REMARK  194  A    between atoms: _457  and  _460
REMARK  195  A    between atoms: _460  and  _461
REMARK  196  A    between atoms: _465  and  _466
REMARK  197  A    between atoms: _471  and  _473
REMARK  198  A    between atoms: _473  and  _474
REMARK  199  A    between atoms: _473  and  _476
REMARK  200  A    between atoms: _476  and  _477
REMARK  201  A    between atoms: _481  and  _482
REMARK  202  A    between atoms: _487  and  _489
REMARK  203  A    between atoms: _489  and  _490
REMARK  204  A    between atoms: _489  and  _492
REMARK  205  A    between atoms: _495  and  _497
REMARK  206  A    between atoms: _497  and  _498
REMARK  207  A    between atoms: _497  and  _500
REMARK  208  A    between atoms: _500  and  _501
REMARK  209  A    between atoms: _506  and  _508
REMARK  210  A    between atoms: _508  and  _509
REMARK  211  A    between atoms: _508  and  _511
REMARK  212  A    between atoms: _511  and  _512
REMARK  213  A    between atoms: _515  and  _517
REMARK  214  A    between atoms: _517  and  _518
REMARK  215  A    between atoms: _517  and  _520
REMARK  216  A    between atoms: _520  and  _521
REMARK  217  A    between atoms: _524  and  _526
REMARK  218  A    between atoms: _526  and  _527
REMARK  219  A    between atoms: _529  and  _531
REMARK  220  A    between atoms: _531  and  _532
REMARK  221  A    between atoms: _531  and  _534
REMARK  222  A    between atoms: _534  and  _535
REMARK  223  A    between atoms: _535  and  _536
REMARK  224  A    between atoms: _536  and  _537
REMARK  225  A    between atoms: _546  and  _548
REMARK  226  A    between atoms: _548  and  _549
REMARK  227  A    between atoms: _548  and  _551
REMARK  228  A    between atoms: _551  and  _552
REMARK                            x       y       z     vdW  Elec       q    Type
REMARK                         _______ _______ _______ _____ _____    ______ ____
ROOT
ATOM      1  O   HOH     1      24.802  33.367  15.795  0.00  0.00    +0.000 OA
ENDROOT
TORSDOF 0
REMARK  Name = ../refined-set-2016/3ok9/3ok9_pocket.pdb
REMARK  228 active torsions:
REMARK  status: ('A' for Active; 'I' for Inactive)
REMARK    1  A    between atoms: _1  and  _3
REMARK    2  A    between atoms: _3  and  _4
REMARK    3  A    between atoms: _3  and  _6
REMARK    4  A    between atoms: _6  and  _7
REMARK    5  A    between atoms: _7  and  _8
REMARK    6  A    between atoms: _8  and  _9
REMARK    7  A    between atoms: _18  and  _20
REMARK    8  A    between atoms: _20  and  _21
REMARK    9  A    between atoms: _20  and  _23
REMARK   10  A    between atoms: _23  and  _24
REMARK   11  A    between atoms: _27  and  _29
REMARK   12  A    between atoms: _29  and  _30
REMARK   13  A    between atoms: _29  and  _32
REMARK   14  A    between atoms: _32  and  _33
REMARK   15  A    between atoms: _36  and  _38
REMARK   16  A    between atoms: _38  and  _39
REMARK   17  A    between atoms: _38  and  _41
REMARK   18  A    between atoms: _41  and  _42
REMARK   19  A    between atoms: _45  and  _47
REMARK   20  A    between atoms: _47  and  _48
REMARK   21  A    between atoms: _47  and  _50
REMARK   22  A    between atoms: _50  and  _51
REMARK   23  A    between atoms: _54  and  _56
REMARK   24  A    between atoms: _56  and  _57
REMARK   25  A    between atoms: _59  and  _61
REMARK   26  A    between atoms: _61  and  _62
REMARK   27  A    between atoms: _65  and  _67
REMARK   28  A    between atoms: _67  and  _68
REMARK   29  A    between atoms: _67  and  _70
REMARK   30  A    between atoms: _70  and  _71
REMARK   31  A    between atoms: _74  and  _76
REMARK   32  A    between atoms: _76  and  _77
REMARK   33  A    between atoms: _76  and  _79
REMARK   34  A    between atoms: _79  and  _80
REMARK   35  A    between atoms: _83  and  _85
REMARK   36  A    between atoms: _85  and  _86
REMARK   37  A    between atoms: _85  and  _88
REMARK   38  A    between atoms: _88  and  _89
REMARK   39  A    between atoms: _92  and  _94
REMARK   40  A    between atoms: _94  and  _95
REMARK   41  A    between atoms: _94  and  _97
REMARK   42  A    between atoms: _100  and  _102
REMARK   43  A    between atoms: _102  and  _103
REMARK   44  A    between atoms: _102  and  _105
REMARK   45  A    between atoms: _105  and  _106
REMARK   46  A    between atoms: _106  and  _107
REMARK   47  A    between atoms: _107  and  _108
REMARK   48  A    between atoms: _108  and  _109
REMARK   49  A    between atoms: _113  and  _115
REMARK   50  A    between atoms: _115  and  _116
REMARK   51  A    between atoms: _115  and  _118
REMARK   52  A    between atoms: _118  and  _119
REMARK   53  A    between atoms: _119  and  _120
REMARK   54  A    between atoms: _122  and  _124
REMARK   55  A    between atoms: _124  and  _125
REMARK   56  A    between atoms: _124  and  _127
REMARK   57  A    between atoms: _127  and  _128
REMARK   58  A    between atoms: _131  and  _133
REMARK   59  A    between atoms: _133  and  _134
REMARK   60  A    between atoms: _136  and  _138
REMARK   61  A    between atoms: _138  and  _139
REMARK   62  A    between atoms: _141  and  _143
REMARK   63  A    between atoms: _143  and  _144
REMARK   64  A    between atoms: _143  and  _146
REMARK   65  A    between atoms: _144  and  _145
REMARK   66  A    between atoms: _144  and  _150
REMARK   67  A    between atoms: _146  and  _147
REMARK   68  A    between atoms: _150  and  _152
REMARK   69  A    between atoms: _152  and  _153
REMARK   70  A    between atoms: _155  and  _157
REMARK   71  A    between atoms: _157  and  _158
REMARK   72  A    between atoms: _160  and  _162
REMARK   73  A    between atoms: _162  and  _163
REMARK   74  A    between atoms: _162  and  _165
REMARK   75  A    between atoms: _165  and  _166
REMARK   76  A    between atoms: _172  and  _174
REMARK   77  A    between atoms: _174  and  _175
REMARK   78  A    between atoms: _174  and  _177
REMARK   79  A    between atoms: _177  and  _178
REMARK   80  A    between atoms: _181  and  _183
REMARK   81  A    between atoms: _183  and  _184
REMARK   82  A    between atoms: _183  and  _186
REMARK   83  A    between atoms: _186  and  _187
REMARK   84  A    between atoms: _190  and  _192
REMARK   85  A    between atoms: _192  and  _193
REMARK   86  A    between atoms: _192  and  _195
REMARK   87  A    between atoms: _195  and  _196
REMARK   88  A    between atoms: _200  and  _201
REMARK   89  A    between atoms: _206  and  _208
REMARK   90  A    between atoms: _208  and  _209
REMARK   91  A    between atoms: _208  and  _211
REMARK   92  A    between atoms: _214  and  _216
REMARK   93  A    between atoms: _216  and  _217
REMARK   94  A    between atoms: _216  and  _219
REMARK   95  A    between atoms: _219  and  _220
REMARK   96  A    between atoms: _225  and  _227
REMARK   97  A    between atoms: _227  and  _228
REMARK   98  A    between atoms: _227  and  _230
REMARK   99  A    between atoms: _230  and  _231
REMARK  100  A    between atoms: _234  and  _236
REMARK  101  A    between atoms: _236  and  _237
REMARK  102  A    between atoms: _239  and  _241
REMARK  103  A    between atoms: _241  and  _242
REMARK  104  A    between atoms: _241  and  _244
REMARK  105  A    between atoms: _244  and  _245
REMARK  106  A    between atoms: _245  and  _246
REMARK  107  A    between atoms: _246  and  _247
REMARK  108  A    between atoms: _256  and  _258
REMARK  109  A    between atoms: _258  and  _259
REMARK  110  A    between atoms: _258  and  _261
REMARK  111  A    between atoms: _261  and  _262
REMARK  112  A    between atoms: _267  and  _269
REMARK  113  A    between atoms: _269  and  _270
REMARK  114  A    between atoms: _269  and  _272
REMARK  115  A    between atoms: _272  and  _273
REMARK  116  A    between atoms: _273  and  _274
REMARK  117  A    between atoms: _274  and  _275
REMARK  118  A    between atoms: _284  and  _286
REMARK  119  A    between atoms: _286  and  _287
REMARK  120  A    between atoms: _286  and  _289
REMARK  121  A    between atoms: _289  and  _290
REMARK  122  A    between atoms: _293  and  _295
REMARK  123  A    between atoms: _295  and  _296
REMARK  124  A    between atoms: _295  and  _298
REMARK  125  A    between atoms: _298  and  _299
REMARK  126  A    between atoms: _302  and  _304
REMARK  127  A    between atoms: _304  and  _305
REMARK  128  A    between atoms: _304  and  _307
REMARK  129  A    between atoms: _307  and  _308
REMARK  130  A    between atoms: _311  and  _313
REMARK  131  A    between atoms: _313  and  _314
REMARK  132  A    between atoms: _313  and  _316
REMARK  133  A    between atoms: _316  and  _317
REMARK  134  A    between atoms: _320  and  _322
REMARK  135  A    between atoms: _322  and  _323
REMARK  136  A    between atoms: _325  and  _327
REMARK  137  A    between atoms: _327  and  _328
REMARK  138  A    between atoms: _331  and  _333
REMARK  139  A    between atoms: _333  and  _334
REMARK  140  A    between atoms: _333  and  _336
REMARK  141  A    between atoms: _336  and  _337
REMARK  142  A    between atoms: _340  and  _342
REMARK  143  A    between atoms: _342  and  _343
REMARK  144  A    between atoms: _342  and  _345
REMARK  145  A    between atoms: _345  and  _346
REMARK  146  A    between atoms: _349  and  _351
REMARK  147  A    between atoms: _351  and  _352
REMARK  148  A    between atoms: _351  and  _354
REMARK  149  A    between atoms: _354  and  _355
REMARK  150  A    between atoms: _358  and  _360
REMARK  151  A    between atoms: _360  and  _361
REMARK  152  A    between atoms: _360  and  _363
REMARK  153  A    between atoms: _366  and  _368
REMARK  154  A    between atoms: _368  and  _369
REMARK  155  A    between atoms: _368  and  _371
REMARK  156  A    between atoms: _371  and  _372
REMARK  157  A    between atoms: _372  and  _373
REMARK  158  A    between atoms: _373  and  _374
REMARK  159  A    between atoms: _374  and  _375
REMARK  160  A    between atoms: _379  and  _381
REMARK  161  A    between atoms: _381  and  _382
REMARK  162  A    between atoms: _381  and  _384
REMARK  163  A    between atoms: _384  and  _385
REMARK  164  A    between atoms: _385  and  _386
REMARK  165  A    between atoms: _388  and  _390
REMARK  166  A    between atoms: _390  and  _391
REMARK  167  A    between atoms: _390  and  _393
REMARK  168  A    between atoms: _393  and  _394
REMARK  169  A    between atoms: _397  and  _399
REMARK  170  A    between atoms: _399  and  _400
REMARK  171  A    between atoms: _402  and  _404
REMARK  172  A    between atoms: _404  and  _405
REMARK  173  A    between atoms: _407  and  _409
REMARK  174  A    between atoms: _409  and  _410
REMARK  175  A    between atoms: _409  and  _412
REMARK  176  A    between atoms: _412  and  _413
REMARK  177  A    between atoms: _416  and  _418
REMARK  178  A    between atoms: _418  and  _419
REMARK  179  A    between atoms: _421  and  _423
REMARK  180  A    between atoms: _423  and  _424
REMARK  181  A    between atoms: _426  and  _428
REMARK  182  A    between atoms: _428  and  _429
REMARK  183  A    between atoms: _428  and  _431
REMARK  184  A    between atoms: _431  and  _432
REMARK  185  A    between atoms: _438  and  _440
REMARK  186  A    between atoms: _440  and  _441
REMARK  187  A    between atoms: _440  and  _443
REMARK  188  A    between atoms: _443  and  _444
REMARK  189  A    between atoms: _447  and  _449
REMARK  190  A    between atoms: _449  and  _450
REMARK  191  A    between atoms: _449  and  _452
REMARK  192  A    between atoms: _455  and  _457
REMARK  193  A    between atoms: _457  and  _458
REMARK  194  A    between atoms: _457  and  _460
REMARK  195  A    between atoms: _460  and  _461
REMARK  196  A    between atoms: _465  and  _466
REMARK  197  A    between atoms: _471  and  _473
REMARK  198  A    between atoms: _473  and  _474
REMARK  199  A    between atoms: _473  and  _476
REMARK  200  A    between atoms: _476  and  _477
REMARK  201  A    between atoms: _481  and  _482
REMARK  202  A    between atoms: _487  and  _489
REMARK  203  A    between atoms: _489  and  _490
REMARK  204  A    between atoms: _489  and  _492
REMARK  205  A    between atoms: _495  and  _497
REMARK  206  A    between atoms: _497  and  _498
REMARK  207  A    between atoms: _497  and  _500
REMARK  208  A    between atoms: _500  and  _501
REMARK  209  A    between atoms: _506  and  _508
REMARK  210  A    between atoms: _508  and  _509
REMARK  211  A    between atoms: _508  and  _511
REMARK  212  A    between atoms: _511  and  _512
REMARK  213  A    between atoms: _515  and  _517
REMARK  214  A    between atoms: _517  and  _518
REMARK  215  A    between atoms: _517  and  _520
REMARK  216  A    between atoms: _520  and  _521
REMARK  217  A    between atoms: _524  and  _526
REMARK  218  A    between atoms: _526  and  _527
REMARK  219  A    between atoms: _529  and  _531
REMARK  220  A    between atoms: _531  and  _532
REMARK  221  A    between atoms: _531  and  _534
REMARK  222  A    between atoms: _534  and  _535
REMARK  223  A    between atoms: _535  and  _536
REMARK  224  A    between atoms: _536  and  _537
REMARK  225  A    between atoms: _546  and  _548
REMARK  226  A    between atoms: _548  and  _549
REMARK  227  A    between atoms: _548  and  _551
REMARK  228  A    between atoms: _551  and  _552
REMARK                            x       y       z     vdW  Elec       q    Type
REMARK                         _______ _______ _______ _____ _____    ______ ____
ROOT
ATOM      1  O   HOH     1       7.525  16.369  12.639  0.00  0.00    +0.000 OA
ENDROOT
TORSDOF 0
REMARK  Name = ../refined-set-2016/3ok9/3ok9_pocket.pdb
REMARK  228 active torsions:
REMARK  status: ('A' for Active; 'I' for Inactive)
REMARK    1  A    between atoms: _1  and  _3
REMARK    2  A    between atoms: _3  and  _4
REMARK    3  A    between atoms: _3  and  _6
REMARK    4  A    between atoms: _6  and  _7
REMARK    5  A    between atoms: _7  and  _8
REMARK    6  A    between atoms: _8  and  _9
REMARK    7  A    between atoms: _18  and  _20
REMARK    8  A    between atoms: _20  and  _21
REMARK    9  A    between atoms: _20  and  _23
REMARK   10  A    between atoms: _23  and  _24
REMARK   11  A    between atoms: _27  and  _29
REMARK   12  A    between atoms: _29  and  _30
REMARK   13  A    between atoms: _29  and  _32
REMARK   14  A    between atoms: _32  and  _33
REMARK   15  A    between atoms: _36  and  _38
REMARK   16  A    between atoms: _38  and  _39
REMARK   17  A    between atoms: _38  and  _41
REMARK   18  A    between atoms: _41  and  _42
REMARK   19  A    between atoms: _45  and  _47
REMARK   20  A    between atoms: _47  and  _48
REMARK   21  A    between atoms: _47  and  _50
REMARK   22  A    between atoms: _50  and  _51
REMARK   23  A    between atoms: _54  and  _56
REMARK   24  A    between atoms: _56  and  _57
REMARK   25  A    between atoms: _59  and  _61
REMARK   26  A    between atoms: _61  and  _62
REMARK   27  A    between atoms: _65  and  _67
REMARK   28  A    between atoms: _67  and  _68
REMARK   29  A    between atoms: _67  and  _70
REMARK   30  A    between atoms: _70  and  _71
REMARK   31  A    between atoms: _74  and  _76
REMARK   32  A    between atoms: _76  and  _77
REMARK   33  A    between atoms: _76  and  _79
REMARK   34  A    between atoms: _79  and  _80
REMARK   35  A    between atoms: _83  and  _85
REMARK   36  A    between atoms: _85  and  _86
REMARK   37  A    between atoms: _85  and  _88
REMARK   38  A    between atoms: _88  and  _89
REMARK   39  A    between atoms: _92  and  _94
REMARK   40  A    between atoms: _94  and  _95
REMARK   41  A    between atoms: _94  and  _97
REMARK   42  A    between atoms: _100  and  _102
REMARK   43  A    between atoms: _102  and  _103
REMARK   44  A    between atoms: _102  and  _105
REMARK   45  A    between atoms: _105  and  _106
REMARK   46  A    between atoms: _106  and  _107
REMARK   47  A    between atoms: _107  and  _108
REMARK   48  A    between atoms: _108  and  _109
REMARK   49  A    between atoms: _113  and  _115
REMARK   50  A    between atoms: _115  and  _116
REMARK   51  A    between atoms: _115  and  _118
REMARK   52  A    between atoms: _118  and  _119
REMARK   53  A    between atoms: _119  and  _120
REMARK   54  A    between atoms: _122  and  _124
REMARK   55  A    between atoms: _124  and  _125
REMARK   56  A    between atoms: _124  and  _127
REMARK   57  A    between atoms: _127  and  _128
REMARK   58  A    between atoms: _131  and  _133
REMARK   59  A    between atoms: _133  and  _134
REMARK   60  A    between atoms: _136  and  _138
REMARK   61  A    between atoms: _138  and  _139
REMARK   62  A    between atoms: _141  and  _143
REMARK   63  A    between atoms: _143  and  _144
REMARK   64  A    between atoms: _143  and  _146
REMARK   65  A    between atoms: _144  and  _145
REMARK   66  A    between atoms: _144  and  _150
REMARK   67  A    between atoms: _146  and  _147
REMARK   68  A    between atoms: _150  and  _152
REMARK   69  A    between atoms: _152  and  _153
REMARK   70  A    between atoms: _155  and  _157
REMARK   71  A    between atoms: _157  and  _158
REMARK   72  A    between atoms: _160  and  _162
REMARK   73  A    between atoms: _162  and  _163
REMARK   74  A    between atoms: _162  and  _165
REMARK   75  A    between atoms: _165  and  _166
REMARK   76  A    between atoms: _172  and  _174
REMARK   77  A    between atoms: _174  and  _175
REMARK   78  A    between atoms: _174  and  _177
REMARK   79  A    between atoms: _177  and  _178
REMARK   80  A    between atoms: _181  and  _183
REMARK   81  A    between atoms: _183  and  _184
REMARK   82  A    between atoms: _183  and  _186
REMARK   83  A    between atoms: _186  and  _187
REMARK   84  A    between atoms: _190  and  _192
REMARK   85  A    between atoms: _192  and  _193
REMARK   86  A    between atoms: _192  and  _195
REMARK   87  A    between atoms: _195  and  _196
REMARK   88  A    between atoms: _200  and  _201
REMARK   89  A    between atoms: _206  and  _208
REMARK   90  A    between atoms: _208  and  _209
REMARK   91  A    between atoms: _208  and  _211
REMARK   92  A    between atoms: _214  and  _216
REMARK   93  A    between atoms: _216  and  _217
REMARK   94  A    between atoms: _216  and  _219
REMARK   95  A    between atoms: _219  and  _220
REMARK   96  A    between atoms: _225  and  _227
REMARK   97  A    between atoms: _227  and  _228
REMARK   98  A    between atoms: _227  and  _230
REMARK   99  A    between atoms: _230  and  _231
REMARK  100  A    between atoms: _234  and  _236
REMARK  101  A    between atoms: _236  and  _237
REMARK  102  A    between atoms: _239  and  _241
REMARK  103  A    between atoms: _241  and  _242
REMARK  104  A    between atoms: _241  and  _244
REMARK  105  A    between atoms: _244  and  _245
REMARK  106  A    between atoms: _245  and  _246
REMARK  107  A    between atoms: _246  and  _247
REMARK  108  A    between atoms: _256  and  _258
REMARK  109  A    between atoms: _258  and  _259
REMARK  110  A    between atoms: _258  and  _261
REMARK  111  A    between atoms: _261  and  _262
REMARK  112  A    between atoms: _267  and  _269
REMARK  113  A    between atoms: _269  and  _270
REMARK  114  A    between atoms: _269  and  _272
REMARK  115  A    between atoms: _272  and  _273
REMARK  116  A    between atoms: _273  and  _274
REMARK  117  A    between atoms: _274  and  _275
REMARK  118  A    between atoms: _284  and  _286
REMARK  119  A    between atoms: _286  and  _287
REMARK  120  A    between atoms: _286  and  _289
REMARK  121  A    between atoms: _289  and  _290
REMARK  122  A    between atoms: _293  and  _295
REMARK  123  A    between atoms: _295  and  _296
REMARK  124  A    between atoms: _295  and  _298
REMARK  125  A    between atoms: _298  and  _299
REMARK  126  A    between atoms: _302  and  _304
REMARK  127  A    between atoms: _304  and  _305
REMARK  128  A    between atoms: _304  and  _307
REMARK  129  A    between atoms: _307  and  _308
REMARK  130  A    between atoms: _311  and  _313
REMARK  131  A    between atoms: _313  and  _314
REMARK  132  A    between atoms: _313  and  _316
REMARK  133  A    between atoms: _316  and  _317
REMARK  134  A    between atoms: _320  and  _322
REMARK  135  A    between atoms: _322  and  _323
REMARK  136  A    between atoms: _325  and  _327
REMARK  137  A    between atoms: _327  and  _328
REMARK  138  A    between atoms: _331  and  _333
REMARK  139  A    between atoms: _333  and  _334
REMARK  140  A    between atoms: _333  and  _336
REMARK  141  A    between atoms: _336  and  _337
REMARK  142  A    between atoms: _340  and  _342
REMARK  143  A    between atoms: _342  and  _343
REMARK  144  A    between atoms: _342  and  _345
REMARK  145  A    between atoms: _345  and  _346
REMARK  146  A    between atoms: _349  and  _351
REMARK  147  A    between atoms: _351  and  _352
REMARK  148  A    between atoms: _351  and  _354
REMARK  149  A    between atoms: _354  and  _355
REMARK  150  A    between atoms: _358  and  _360
REMARK  151  A    between atoms: _360  and  _361
REMARK  152  A    between atoms: _360  and  _363
REMARK  153  A    between atoms: _366  and  _368
REMARK  154  A    between atoms: _368  and  _369
REMARK  155  A    between atoms: _368  and  _371
REMARK  156  A    between atoms: _371  and  _372
REMARK  157  A    between atoms: _372  and  _373
REMARK  158  A    between atoms: _373  and  _374
REMARK  159  A    between atoms: _374  and  _375
REMARK  160  A    between atoms: _379  and  _381
REMARK  161  A    between atoms: _381  and  _382
REMARK  162  A    between atoms: _381  and  _384
REMARK  163  A    between atoms: _384  and  _385
REMARK  164  A    between atoms: _385  and  _386
REMARK  165  A    between atoms: _388  and  _390
REMARK  166  A    between atoms: _390  and  _391
REMARK  167  A    between atoms: _390  and  _393
REMARK  168  A    between atoms: _393  and  _394
REMARK  169  A    between atoms: _397  and  _399
REMARK  170  A    between atoms: _399  and  _400
REMARK  171  A    between atoms: _402  and  _404
REMARK  172  A    between atoms: _404  and  _405
REMARK  173  A    between atoms: _407  and  _409
REMARK  174  A    between atoms: _409  and  _410
REMARK  175  A    between atoms: _409  and  _412
REMARK  176  A    between atoms: _412  and  _413
REMARK  177  A    between atoms: _416  and  _418
REMARK  178  A    between atoms: _418  and  _419
REMARK  179  A    between atoms: _421  and  _423
REMARK  180  A    between atoms: _423  and  _424
REMARK  181  A    between atoms: _426  and  _428
REMARK  182  A    between atoms: _428  and  _429
REMARK  183  A    between atoms: _428  and  _431
REMARK  184  A    between atoms: _431  and  _432
REMARK  185  A    between atoms: _438  and  _440
REMARK  186  A    between atoms: _440  and  _441
REMARK  187  A    between atoms: _440  and  _443
REMARK  188  A    between atoms: _443  and  _444
REMARK  189  A    between atoms: _447  and  _449
REMARK  190  A    between atoms: _449  and  _450
REMARK  191  A    between atoms: _449  and  _452
REMARK  192  A    between atoms: _455  and  _457
REMARK  193  A    between atoms: _457  and  _458
REMARK  194  A    between atoms: _457  and  _460
REMARK  195  A    between atoms: _460  and  _461
REMARK  196  A    between atoms: _465  and  _466
REMARK  197  A    between atoms: _471  and  _473
REMARK  198  A    between atoms: _473  and  _474
REMARK  199  A    between atoms: _473  and  _476
REMARK  200  A    between atoms: _476  and  _477
REMARK  201  A    between atoms: _481  and  _482
REMARK  202  A    between atoms: _487  and  _489
REMARK  203  A    between atoms: _489  and  _490
REMARK  204  A    between atoms: _489  and  _492
REMARK  205  A    between atoms: _495  and  _497
REMARK  206  A    between atoms: _497  and  _498
REMARK  207  A    between atoms: _497  and  _500
REMARK  208  A    between atoms: _500  and  _501
REMARK  209  A    between atoms: _506  and  _508
REMARK  210  A    between atoms: _508  and  _509
REMARK  211  A    between atoms: _508  and  _511
REMARK  212  A    between atoms: _511  and  _512
REMARK  213  A    between atoms: _515  and  _517
REMARK  214  A    between atoms: _517  and  _518
REMARK  215  A    between atoms: _517  and  _520
REMARK  216  A    between atoms: _520  and  _521
REMARK  217  A    between atoms: _524  and  _526
REMARK  218  A    between atoms: _526  and  _527
REMARK  219  A    between atoms: _529  and  _531
REMARK  220  A    between atoms: _531  and  _532
REMARK  221  A    between atoms: _531  and  _534
REMARK  222  A    between atoms: _534  and  _535
REMARK  223  A    between atoms: _535  and  _536
REMARK  224  A    between atoms: _536  and  _537
REMARK  225  A    between atoms: _546  and  _548
REMARK  226  A    between atoms: _548  and  _549
REMARK  227  A    between atoms: _548  and  _551
REMARK  228  A    between atoms: _551  and  _552
REMARK                            x       y       z     vdW  Elec       q    Type
REMARK                         _______ _______ _______ _____ _____    ______ ____
ROOT
ATOM      1  O   HOH     1       9.282  20.938   7.633  0.00  0.00    +0.000 OA
ENDROOT
TORSDOF 0
REMARK  Name = ../refined-set-2016/3ok9/3ok9_pocket.pdb
REMARK  228 active torsions:
REMARK  status: ('A' for Active; 'I' for Inactive)
REMARK    1  A    between atoms: _1  and  _3
REMARK    2  A    between atoms: _3  and  _4
REMARK    3  A    between atoms: _3  and  _6
REMARK    4  A    between atoms: _6  and  _7
REMARK    5  A    between atoms: _7  and  _8
REMARK    6  A    between atoms: _8  and  _9
REMARK    7  A    between atoms: _18  and  _20
REMARK    8  A    between atoms: _20  and  _21
REMARK    9  A    between atoms: _20  and  _23
REMARK   10  A    between atoms: _23  and  _24
REMARK   11  A    between atoms: _27  and  _29
REMARK   12  A    between atoms: _29  and  _30
REMARK   13  A    between atoms: _29  and  _32
REMARK   14  A    between atoms: _32  and  _33
REMARK   15  A    between atoms: _36  and  _38
REMARK   16  A    between atoms: _38  and  _39
REMARK   17  A    between atoms: _38  and  _41
REMARK   18  A    between atoms: _41  and  _42
REMARK   19  A    between atoms: _45  and  _47
REMARK   20  A    between atoms: _47  and  _48
REMARK   21  A    between atoms: _47  and  _50
REMARK   22  A    between atoms: _50  and  _51
REMARK   23  A    between atoms: _54  and  _56
REMARK   24  A    between atoms: _56  and  _57
REMARK   25  A    between atoms: _59  and  _61
REMARK   26  A    between atoms: _61  and  _62
REMARK   27  A    between atoms: _65  and  _67
REMARK   28  A    between atoms: _67  and  _68
REMARK   29  A    between atoms: _67  and  _70
REMARK   30  A    between atoms: _70  and  _71
REMARK   31  A    between atoms: _74  and  _76
REMARK   32  A    between atoms: _76  and  _77
REMARK   33  A    between atoms: _76  and  _79
REMARK   34  A    between atoms: _79  and  _80
REMARK   35  A    between atoms: _83  and  _85
REMARK   36  A    between atoms: _85  and  _86
REMARK   37  A    between atoms: _85  and  _88
REMARK   38  A    between atoms: _88  and  _89
REMARK   39  A    between atoms: _92  and  _94
REMARK   40  A    between atoms: _94  and  _95
REMARK   41  A    between atoms: _94  and  _97
REMARK   42  A    between atoms: _100  and  _102
REMARK   43  A    between atoms: _102  and  _103
REMARK   44  A    between atoms: _102  and  _105
REMARK   45  A    between atoms: _105  and  _106
REMARK   46  A    between atoms: _106  and  _107
REMARK   47  A    between atoms: _107  and  _108
REMARK   48  A    between atoms: _108  and  _109
REMARK   49  A    between atoms: _113  and  _115
REMARK   50  A    between atoms: _115  and  _116
REMARK   51  A    between atoms: _115  and  _118
REMARK   52  A    between atoms: _118  and  _119
REMARK   53  A    between atoms: _119  and  _120
REMARK   54  A    between atoms: _122  and  _124
REMARK   55  A    between atoms: _124  and  _125
REMARK   56  A    between atoms: _124  and  _127
REMARK   57  A    between atoms: _127  and  _128
REMARK   58  A    between atoms: _131  and  _133
REMARK   59  A    between atoms: _133  and  _134
REMARK   60  A    between atoms: _136  and  _138
REMARK   61  A    between atoms: _138  and  _139
REMARK   62  A    between atoms: _141  and  _143
REMARK   63  A    between atoms: _143  and  _144
REMARK   64  A    between atoms: _143  and  _146
REMARK   65  A    between atoms: _144  and  _145
REMARK   66  A    between atoms: _144  and  _150
REMARK   67  A    between atoms: _146  and  _147
REMARK   68  A    between atoms: _150  and  _152
REMARK   69  A    between atoms: _152  and  _153
REMARK   70  A    between atoms: _155  and  _157
REMARK   71  A    between atoms: _157  and  _158
REMARK   72  A    between atoms: _160  and  _162
REMARK   73  A    between atoms: _162  and  _163
REMARK   74  A    between atoms: _162  and  _165
REMARK   75  A    between atoms: _165  and  _166
REMARK   76  A    between atoms: _172  and  _174
REMARK   77  A    between atoms: _174  and  _175
REMARK   78  A    between atoms: _174  and  _177
REMARK   79  A    between atoms: _177  and  _178
REMARK   80  A    between atoms: _181  and  _183
REMARK   81  A    between atoms: _183  and  _184
REMARK   82  A    between atoms: _183  and  _186
REMARK   83  A    between atoms: _186  and  _187
REMARK   84  A    between atoms: _190  and  _192
REMARK   85  A    between atoms: _192  and  _193
REMARK   86  A    between atoms: _192  and  _195
REMARK   87  A    between atoms: _195  and  _196
REMARK   88  A    between atoms: _200  and  _201
REMARK   89  A    between atoms: _206  and  _208
REMARK   90  A    between atoms: _208  and  _209
REMARK   91  A    between atoms: _208  and  _211
REMARK   92  A    between atoms: _214  and  _216
REMARK   93  A    between atoms: _216  and  _217
REMARK   94  A    between atoms: _216  and  _219
REMARK   95  A    between atoms: _219  and  _220
REMARK   96  A    between atoms: _225  and  _227
REMARK   97  A    between atoms: _227  and  _228
REMARK   98  A    between atoms: _227  and  _230
REMARK   99  A    between atoms: _230  and  _231
REMARK  100  A    between atoms: _234  and  _236
REMARK  101  A    between atoms: _236  and  _237
REMARK  102  A    between atoms: _239  and  _241
REMARK  103  A    between atoms: _241  and  _242
REMARK  104  A    between atoms: _241  and  _244
REMARK  105  A    between atoms: _244  and  _245
REMARK  106  A    between atoms: _245  and  _246
REMARK  107  A    between atoms: _246  and  _247
REMARK  108  A    between atoms: _256  and  _258
REMARK  109  A    between atoms: _258  and  _259
REMARK  110  A    between atoms: _258  and  _261
REMARK  111  A    between atoms: _261  and  _262
REMARK  112  A    between atoms: _267  and  _269
REMARK  113  A    between atoms: _269  and  _270
REMARK  114  A    between atoms: _269  and  _272
REMARK  115  A    between atoms: _272  and  _273
REMARK  116  A    between atoms: _273  and  _274
REMARK  117  A    between atoms: _274  and  _275
REMARK  118  A    between atoms: _284  and  _286
REMARK  119  A    between atoms: _286  and  _287
REMARK  120  A    between atoms: _286  and  _289
REMARK  121  A    between atoms: _289  and  _290
REMARK  122  A    between atoms: _293  and  _295
REMARK  123  A    between atoms: _295  and  _296
REMARK  124  A    between atoms: _295  and  _298
REMARK  125  A    between atoms: _298  and  _299
REMARK  126  A    between atoms: _302  and  _304
REMARK  127  A    between atoms: _304  and  _305
REMARK  128  A    between atoms: _304  and  _307
REMARK  129  A    between atoms: _307  and  _308
REMARK  130  A    between atoms: _311  and  _313
REMARK  131  A    between atoms: _313  and  _314
REMARK  132  A    between atoms: _313  and  _316
REMARK  133  A    between atoms: _316  and  _317
REMARK  134  A    between atoms: _320  and  _322
REMARK  135  A    between atoms: _322  and  _323
REMARK  136  A    between atoms: _325  and  _327
REMARK  137  A    between atoms: _327  and  _328
REMARK  138  A    between atoms: _331  and  _333
REMARK  139  A    between atoms: _333  and  _334
REMARK  140  A    between atoms: _333  and  _336
REMARK  141  A    between atoms: _336  and  _337
REMARK  142  A    between atoms: _340  and  _342
REMARK  143  A    between atoms: _342  and  _343
REMARK  144  A    between atoms: _342  and  _345
REMARK  145  A    between atoms: _345  and  _346
REMARK  146  A    between atoms: _349  and  _351
REMARK  147  A    between atoms: _351  and  _352
REMARK  148  A    between atoms: _351  and  _354
REMARK  149  A    between atoms: _354  and  _355
REMARK  150  A    between atoms: _358  and  _360
REMARK  151  A    between atoms: _360  and  _361
REMARK  152  A    between atoms: _360  and  _363
REMARK  153  A    between atoms: _366  and  _368
REMARK  154  A    between atoms: _368  and  _369
REMARK  155  A    between atoms: _368  and  _371
REMARK  156  A    between atoms: _371  and  _372
REMARK  157  A    between atoms: _372  and  _373
REMARK  158  A    between atoms: _373  and  _374
REMARK  159  A    between atoms: _374  and  _375
REMARK  160  A    between atoms: _379  and  _381
REMARK  161  A    between atoms: _381  and  _382
REMARK  162  A    between atoms: _381  and  _384
REMARK  163  A    between atoms: _384  and  _385
REMARK  164  A    between atoms: _385  and  _386
REMARK  165  A    between atoms: _388  and  _390
REMARK  166  A    between atoms: _390  and  _391
REMARK  167  A    between atoms: _390  and  _393
REMARK  168  A    between atoms: _393  and  _394
REMARK  169  A    between atoms: _397  and  _399
REMARK  170  A    between atoms: _399  and  _400
REMARK  171  A    between atoms: _402  and  _404
REMARK  172  A    between atoms: _404  and  _405
REMARK  173  A    between atoms: _407  and  _409
REMARK  174  A    between atoms: _409  and  _410
REMARK  175  A    between atoms: _409  and  _412
REMARK  176  A    between atoms: _412  and  _413
REMARK  177  A    between atoms: _416  and  _418
REMARK  178  A    between atoms: _418  and  _419
REMARK  179  A    between atoms: _421  and  _423
REMARK  180  A    between atoms: _423  and  _424
REMARK  181  A    between atoms: _426  and  _428
REMARK  182  A    between atoms: _428  and  _429
REMARK  183  A    between atoms: _428  and  _431
REMARK  184  A    between atoms: _431  and  _432
REMARK  185  A    between atoms: _438  and  _440
REMARK  186  A    between atoms: _440  and  _441
REMARK  187  A    between atoms: _440  and  _443
REMARK  188  A    between atoms: _443  and  _444
REMARK  189  A    between atoms: _447  and  _449
REMARK  190  A    between atoms: _449  and  _450
REMARK  191  A    between atoms: _449  and  _452
REMARK  192  A    between atoms: _455  and  _457
REMARK  193  A    between atoms: _457  and  _458
REMARK  194  A    between atoms: _457  and  _460
REMARK  195  A    between atoms: _460  and  _461
REMARK  196  A    between atoms: _465  and  _466
REMARK  197  A    between atoms: _471  and  _473
REMARK  198  A    between atoms: _473  and  _474
REMARK  199  A    between atoms: _473  and  _476
REMARK  200  A    between atoms: _476  and  _477
REMARK  201  A    between atoms: _481  and  _482
REMARK  202  A    between atoms: _487  and  _489
REMARK  203  A    between atoms: _489  and  _490
REMARK  204  A    between atoms: _489  and  _492
REMARK  205  A    between atoms: _495  and  _497
REMARK  206  A    between atoms: _497  and  _498
REMARK  207  A    between atoms: _497  and  _500
REMARK  208  A    between atoms: _500  and  _501
REMARK  209  A    between atoms: _506  and  _508
REMARK  210  A    between atoms: _508  and  _509
REMARK  211  A    between atoms: _508  and  _511
REMARK  212  A    between atoms: _511  and  _512
REMARK  213  A    between atoms: _515  and  _517
REMARK  214  A    between atoms: _517  and  _518
REMARK  215  A    between atoms: _517  and  _520
REMARK  216  A    between atoms: _520  and  _521
REMARK  217  A    between atoms: _524  and  _526
REMARK  218  A    between atoms: _526  and  _527
REMARK  219  A    between atoms: _529  and  _531
REMARK  220  A    between atoms: _531  and  _532
REMARK  221  A    between atoms: _531  and  _534
REMARK  222  A    between atoms: _534  and  _535
REMARK  223  A    between atoms: _535  and  _536
REMARK  224  A    between atoms: _536  and  _537
REMARK  225  A    between atoms: _546  and  _548
REMARK  226  A    between atoms: _548  and  _549
REMARK  227  A    between atoms: _548  and  _551
REMARK  228  A    between atoms: _551  and  _552
REMARK                            x       y       z     vdW  Elec       q    Type
REMARK                         _______ _______ _______ _____ _____    ______ ____
ROOT
ATOM      1  O   HOH     1       7.008  23.699   8.471  0.00  0.00    +0.000 OA
ENDROOT
TORSDOF 0
