REMARK  Name = ../refined-set-2016/3coy/3coy_pocket.pdb
REMARK  236 active torsions:
REMARK  status: ('A' for Active; 'I' for Inactive)
REMARK    1  A    between atoms: _1  and  _3
REMARK    2  A    between atoms: _3  and  _4
REMARK    3  A    between atoms: _3  and  _6
REMARK    4  A    between atoms: _10  and  _11
REMARK    5  A    between atoms: _16  and  _18
REMARK    6  A    between atoms: _18  and  _19
REMARK    7  A    between atoms: _18  and  _21
REMARK    8  A    between atoms: _21  and  _22
REMARK    9  A    between atoms: _25  and  _27
REMARK   10  A    between atoms: _27  and  _28
REMARK   11  A    between atoms: _27  and  _30
REMARK   12  A    between atoms: _30  and  _31
REMARK   13  A    between atoms: _31  and  _32
REMARK   14  A    between atoms: _34  and  _36
REMARK   15  A    between atoms: _36  and  _37
REMARK   16  A    between atoms: _39  and  _41
REMARK   17  A    between atoms: _41  and  _42
REMARK   18  A    between atoms: _45  and  _47
REMARK   19  A    between atoms: _47  and  _48
REMARK   20  A    between atoms: _47  and  _50
REMARK   21  A    between atoms: _50  and  _51
REMARK   22  A    between atoms: _54  and  _56
REMARK   23  A    between atoms: _56  and  _57
REMARK   24  A    between atoms: _56  and  _59
REMARK   25  A    between atoms: _59  and  _60
REMARK   26  A    between atoms: _65  and  _67
REMARK   27  A    between atoms: _67  and  _68
REMARK   28  A    between atoms: _67  and  _70
REMARK   29  A    between atoms: _70  and  _71
REMARK   30  A    between atoms: _71  and  _72
REMARK   31  A    between atoms: _75  and  _77
REMARK   32  A    between atoms: _77  and  _78
REMARK   33  A    between atoms: _80  and  _82
REMARK   34  A    between atoms: _82  and  _83
REMARK   35  A    between atoms: _82  and  _85
REMARK   36  A    between atoms: _85  and  _86
REMARK   37  A    between atoms: _91  and  _93
REMARK   38  A    between atoms: _93  and  _94
REMARK   39  A    between atoms: _93  and  _96
REMARK   40  A    between atoms: _96  and  _97
REMARK   41  A    between atoms: _100  and  _102
REMARK   42  A    between atoms: _102  and  _103
REMARK   43  A    between atoms: _106  and  _108
REMARK   44  A    between atoms: _108  and  _109
REMARK   45  A    between atoms: _108  and  _111
REMARK   46  A    between atoms: _111  and  _112
REMARK   47  A    between atoms: _115  and  _117
REMARK   48  A    between atoms: _117  and  _118
REMARK   49  A    between atoms: _117  and  _120
REMARK   50  A    between atoms: _123  and  _125
REMARK   51  A    between atoms: _125  and  _126
REMARK   52  A    between atoms: _125  and  _128
REMARK   53  A    between atoms: _131  and  _133
REMARK   54  A    between atoms: _133  and  _134
REMARK   55  A    between atoms: _133  and  _136
REMARK   56  A    between atoms: _136  and  _137
REMARK   57  A    between atoms: _139  and  _141
REMARK   58  A    between atoms: _141  and  _142
REMARK   59  A    between atoms: _141  and  _144
REMARK   60  A    between atoms: _144  and  _145
REMARK   61  A    between atoms: _148  and  _150
REMARK   62  A    between atoms: _150  and  _151
REMARK   63  A    between atoms: _150  and  _153
REMARK   64  A    between atoms: _153  and  _154
REMARK   65  A    between atoms: _160  and  _162
REMARK   66  A    between atoms: _162  and  _163
REMARK   67  A    between atoms: _162  and  _165
REMARK   68  A    between atoms: _168  and  _170
REMARK   69  A    between atoms: _170  and  _171
REMARK   70  A    between atoms: _170  and  _173
REMARK   71  A    between atoms: _173  and  _174
REMARK   72  A    between atoms: _179  and  _181
REMARK   73  A    between atoms: _181  and  _182
REMARK   74  A    between atoms: _181  and  _184
REMARK   75  A    between atoms: _184  and  _185
REMARK   76  A    between atoms: _185  and  _186
REMARK   77  A    between atoms: _191  and  _193
REMARK   78  A    between atoms: _193  and  _194
REMARK   79  A    between atoms: _193  and  _196
REMARK   80  A    between atoms: _196  and  _197
REMARK   81  A    between atoms: _203  and  _205
REMARK   82  A    between atoms: _205  and  _206
REMARK   83  A    between atoms: _205  and  _208
REMARK   84  A    between atoms: _208  and  _209
REMARK   85  A    between atoms: _214  and  _215
REMARK   86  A    between atoms: _217  and  _219
REMARK   87  A    between atoms: _219  and  _220
REMARK   88  A    between atoms: _219  and  _222
REMARK   89  A    between atoms: _222  and  _223
REMARK   90  A    between atoms: _228  and  _229
REMARK   91  A    between atoms: _231  and  _233
REMARK   92  A    between atoms: _233  and  _234
REMARK   93  A    between atoms: _233  and  _236
REMARK   94  A    between atoms: _236  and  _237
REMARK   95  A    between atoms: _242  and  _244
REMARK   96  A    between atoms: _244  and  _245
REMARK   97  A    between atoms: _244  and  _247
REMARK   98  A    between atoms: _247  and  _248
REMARK   99  A    between atoms: _254  and  _256
REMARK  100  A    between atoms: _256  and  _257
REMARK  101  A    between atoms: _259  and  _261
REMARK  102  A    between atoms: _261  and  _262
REMARK  103  A    between atoms: _261  and  _264
REMARK  104  A    between atoms: _267  and  _269
REMARK  105  A    between atoms: _269  and  _270
REMARK  106  A    between atoms: _269  and  _272
REMARK  107  A    between atoms: _272  and  _273
REMARK  108  A    between atoms: _276  and  _278
REMARK  109  A    between atoms: _278  and  _279
REMARK  110  A    between atoms: _278  and  _281
REMARK  111  A    between atoms: _281  and  _282
REMARK  112  A    between atoms: _285  and  _287
REMARK  113  A    between atoms: _287  and  _288
REMARK  114  A    between atoms: _287  and  _290
REMARK  115  A    between atoms: _293  and  _295
REMARK  116  A    between atoms: _295  and  _296
REMARK  117  A    between atoms: _295  and  _298
REMARK  118  A    between atoms: _301  and  _303
REMARK  119  A    between atoms: _303  and  _304
REMARK  120  A    between atoms: _303  and  _306
REMARK  121  A    between atoms: _306  and  _307
REMARK  122  A    between atoms: _310  and  _312
REMARK  123  A    between atoms: _312  and  _313
REMARK  124  A    between atoms: _312  and  _315
REMARK  125  A    between atoms: _315  and  _316
REMARK  126  A    between atoms: _319  and  _321
REMARK  127  A    between atoms: _321  and  _322
REMARK  128  A    between atoms: _321  and  _324
REMARK  129  A    between atoms: _327  and  _329
REMARK  130  A    between atoms: _329  and  _330
REMARK  131  A    between atoms: _329  and  _332
REMARK  132  A    between atoms: _332  and  _333
REMARK  133  A    between atoms: _339  and  _341
REMARK  134  A    between atoms: _341  and  _342
REMARK  135  A    between atoms: _341  and  _344
REMARK  136  A    between atoms: _344  and  _345
REMARK  137  A    between atoms: _351  and  _353
REMARK  138  A    between atoms: _353  and  _354
REMARK  139  A    between atoms: _356  and  _358
REMARK  140  A    between atoms: _358  and  _359
REMARK  141  A    between atoms: _358  and  _361
REMARK  142  A    between atoms: _361  and  _362
REMARK  143  A    between atoms: _362  and  _363
REMARK  144  A    between atoms: _366  and  _368
REMARK  145  A    between atoms: _368  and  _369
REMARK  146  A    between atoms: _368  and  _371
REMARK  147  A    between atoms: _371  and  _372
REMARK  148  A    between atoms: _372  and  _373
REMARK  149  A    between atoms: _373  and  _374
REMARK  150  A    between atoms: _374  and  _375
REMARK  151  A    between atoms: _379  and  _381
REMARK  152  A    between atoms: _381  and  _382
REMARK  153  A    between atoms: _381  and  _384
REMARK  154  A    between atoms: _384  and  _385
REMARK  155  A    between atoms: _388  and  _390
REMARK  156  A    between atoms: _390  and  _391
REMARK  157  A    between atoms: _390  and  _393
REMARK  158  A    between atoms: _393  and  _394
REMARK  159  A    between atoms: _399  and  _400
REMARK  160  A    between atoms: _402  and  _404
REMARK  161  A    between atoms: _404  and  _405
REMARK  162  A    between atoms: _404  and  _407
REMARK  163  A    between atoms: _407  and  _408
REMARK  164  A    between atoms: _408  and  _409
REMARK  165  A    between atoms: _414  and  _416
REMARK  166  A    between atoms: _416  and  _417
REMARK  167  A    between atoms: _416  and  _419
REMARK  168  A    between atoms: _419  and  _420
REMARK  169  A    between atoms: _423  and  _425
REMARK  170  A    between atoms: _425  and  _426
REMARK  171  A    between atoms: _425  and  _428
REMARK  172  A    between atoms: _428  and  _429
REMARK  173  A    between atoms: _432  and  _434
REMARK  174  A    between atoms: _434  and  _435
REMARK  175  A    between atoms: _434  and  _437
REMARK  176  A    between atoms: _440  and  _442
REMARK  177  A    between atoms: _442  and  _443
REMARK  178  A    between atoms: _445  and  _447
REMARK  179  A    between atoms: _447  and  _448
REMARK  180  A    between atoms: _447  and  _450
REMARK  181  A    between atoms: _454  and  _455
REMARK  182  A    between atoms: _460  and  _462
REMARK  183  A    between atoms: _462  and  _463
REMARK  184  A    between atoms: _462  and  _465
REMARK  185  A    between atoms: _465  and  _466
REMARK  186  A    between atoms: _469  and  _471
REMARK  187  A    between atoms: _471  and  _472
REMARK  188  A    between atoms: _471  and  _474
REMARK  189  A    between atoms: _477  and  _479
REMARK  190  A    between atoms: _479  and  _480
REMARK  191  A    between atoms: _479  and  _482
REMARK  192  A    between atoms: _482  and  _483
REMARK  193  A    between atoms: _483  and  _484
REMARK  194  A    between atoms: _484  and  _485
REMARK  195  A    between atoms: _494  and  _496
REMARK  196  A    between atoms: _496  and  _497
REMARK  197  A    between atoms: _496  and  _499
REMARK  198  A    between atoms: _499  and  _500
REMARK  199  A    between atoms: _500  and  _501
REMARK  200  A    between atoms: _504  and  _506
REMARK  201  A    between atoms: _506  and  _507
REMARK  202  A    between atoms: _506  and  _509
REMARK  203  A    between atoms: _509  and  _510
REMARK  204  A    between atoms: _513  and  _515
REMARK  205  A    between atoms: _515  and  _516
REMARK  206  A    between atoms: _519  and  _521
REMARK  207  A    between atoms: _521  and  _522
REMARK  208  A    between atoms: _521  and  _524
REMARK  209  A    between atoms: _524  and  _525
REMARK  210  A    between atoms: _525  and  _526
REMARK  211  A    between atoms: _528  and  _530
REMARK  212  A    between atoms: _530  and  _531
REMARK  213  A    between atoms: _530  and  _533
REMARK  214  A    between atoms: _533  and  _534
REMARK  215  A    between atoms: _536  and  _538
REMARK  216  A    between atoms: _538  and  _539
REMARK  217  A    between atoms: _538  and  _541
REMARK  218  A    between atoms: _541  and  _542
REMARK  219  A    between atoms: _544  and  _546
REMARK  220  A    between atoms: _546  and  _547
REMARK  221  A    between atoms: _546  and  _549
REMARK  222  A    between atoms: _549  and  _550
REMARK  223  A    between atoms: _550  and  _551
REMARK  224  A    between atoms: _551  and  _552
REMARK  225  A    between atoms: _561  and  _563
REMARK  226  A    between atoms: _563  and  _564
REMARK  227  A    between atoms: _563  and  _566
REMARK  228  A    between atoms: _566  and  _567
REMARK  229  A    between atoms: _572  and  _574
REMARK  230  A    between atoms: _574  and  _575
REMARK  231  A    between atoms: _574  and  _577
REMARK  232  A    between atoms: _577  and  _578
REMARK  233  A    between atoms: _581  and  _583
REMARK  234  A    between atoms: _583  and  _584
REMARK  235  A    between atoms: _583  and  _586
REMARK  236  A    between atoms: _586  and  _587
REMARK                            x       y       z     vdW  Elec       q    Type
REMARK                         _______ _______ _______ _____ _____    ______ ____
ROOT
ATOM      1  CA  HIS A   8      15.079  18.384  -3.811  0.00  0.00    +0.155 C 
ENDROOT
BRANCH   1   4
ATOM      2  C   LEU A   7      14.966  19.325  -1.580  0.00  0.00    +0.241 C 
ATOM      3  O   LEU A   7      15.311  20.460  -1.944  0.00  0.00    -0.273 OA
ATOM      4  N   HIS A   8      14.868  18.284  -2.391  0.00  0.00    -0.297 N 
ATOM      5  H   HIS A   8      14.629  17.356  -1.986  0.00  0.00    +0.150 HD
BRANCH   2   6
ATOM      6  CA  LEU A   7      14.632  19.031  -0.131  0.00  0.00    +0.149 C 
BRANCH   6   8
ATOM      7  C   ALA A   6      16.815  19.203   0.934  0.00  0.00    +0.241 C 
ATOM      8  N   LEU A   7      15.577  19.645   0.767  0.00  0.00    -0.297 N 
ATOM      9  H   LEU A   7      15.272  20.477   1.311  0.00  0.00    +0.150 HD
ATOM     10  O   ALA A   6      17.347  18.370   0.199  0.00  0.00    -0.273 OA
BRANCH   7  11
ATOM     11  CA  ALA A   6      17.540  19.797   2.136  0.00  0.00    +0.149 C 
ATOM     12  CB  ALA A   6      18.969  19.211   2.293  0.00  0.00    +0.031 C 
BRANCH  11  14
ATOM     13  C   GLY A   5      16.302  18.351   3.713  0.00  0.00    +0.243 C 
ATOM     14  N   ALA A   6      16.732  19.561   3.344  0.00  0.00    -0.297 N 
ATOM     15  H   ALA A   6      16.484  20.377   3.940  0.00  0.00    +0.150 HD
ATOM     16  O   GLY A   5      16.677  17.296   3.178  0.00  0.00    -0.273 OA
BRANCH  13  17
ATOM     17  CA  GLY A   5      15.322  18.329   4.884  0.00  0.00    +0.176 C 
BRANCH  17  20
ATOM     18  C   MET A   4      16.215  16.552   6.305  0.00  0.00    +0.241 C 
ATOM     19  O   MET A   4      17.190  17.216   6.634  0.00  0.00    -0.273 OA
ATOM     20  N   GLY A   5      15.242  17.023   5.536  0.00  0.00    -0.295 N 
ATOM     21  H   GLY A   5      14.391  16.442   5.392  0.00  0.00    +0.150 HD
BRANCH  18  22
ATOM     22  CA  MET A   4      16.044  15.136   6.807  0.00  0.00    +0.149 C 
BRANCH  22  25
ATOM     23  C   THR A   3      13.781  14.295   6.529  0.00  0.00    +0.243 C 
ATOM     24  O   THR A   3      13.476  14.580   7.692  0.00  0.00    -0.273 OA
ATOM     25  N   MET A   4      15.004  14.451   6.044  0.00  0.00    -0.297 N 
ATOM     26  H   MET A   4      15.228  14.078   5.100  0.00  0.00    +0.150 HD
BRANCH  23  27
ATOM     27  CA  THR A   3      12.733  13.739   5.539  0.00  0.00    +0.176 C 
BRANCH  27  29
ATOM     28  C   PRO A   2      10.896  12.141   5.849  0.00  0.00    +0.241 C 
ATOM     29  N   THR A   3      11.489  13.282   6.201  0.00  0.00    -0.295 N 
ATOM     30  H   THR A   3      11.070  13.863   6.955  0.00  0.00    +0.150 HD
ATOM     31  O   PRO A   2      11.233  11.481   4.865  0.00  0.00    -0.273 OA
BRANCH  28  34
ATOM     32  C   VAL A   1       7.873  12.450   5.353  0.00  0.00    +0.241 C 
ATOM     33  N   PRO A   2       8.523  11.418   5.914  0.00  0.00    -0.272 N 
ATOM     34  CA  PRO A   2       9.742  11.677   6.710  0.00  0.00    +0.152 C 
ATOM     35  CB  PRO A   2      10.067  10.298   7.315  0.00  0.00    +0.031 C 
ATOM     36  CG  PRO A   2       8.693   9.533   7.288  0.00  0.00    +0.024 C 
ATOM     37  CD  PRO A   2       8.125  10.001   5.953  0.00  0.00    +0.094 C 
ATOM     38  O   VAL A   1       8.168  13.607   5.610  0.00  0.00    -0.273 OA
BRANCH  32  39
ATOM     39  CA  VAL A   1       6.667  12.126   4.446  0.00  0.00    +0.145 C 
BRANCH  39  40
ATOM     40  CB  VAL A   1       6.661  13.072   3.194  0.00  0.00    +0.025 C 
ATOM     41  CG2 VAL A   1       5.388  12.857   2.364  0.00  0.00    +0.002 C 
ATOM     42  CG1 VAL A   1       7.900  12.802   2.308  0.00  0.00    +0.002 C 
ENDBRANCH  39  40
BRANCH  39  43
ATOM     43  N   VAL A   1       5.431  12.180   5.218  0.00  0.00    -0.238 NA
ATOM     44  H   VAL A   1       5.145  13.092   5.629  0.00  0.00    +0.142 HD
ENDBRANCH  39  43
ENDBRANCH  32  39
ENDBRANCH  28  34
ENDBRANCH  27  29
BRANCH  27  45
ATOM     45  CB  THR A   3      12.449  14.867   4.535  0.00  0.00    +0.137 C 
ATOM     46  CG2 THR A   3      11.175  14.583   3.740  0.00  0.00    +0.034 C 
BRANCH  45  47
ATOM     47  OG1 THR A   3      12.313  16.103   5.253  0.00  0.00    -0.382 OA
ATOM     48  HG1 THR A   3      11.564  16.029   5.896  0.00  0.00    +0.210 HD
ENDBRANCH  45  47
ENDBRANCH  27  45
ENDBRANCH  23  27
ENDBRANCH  22  25
BRANCH  22  49
ATOM     49  CB  MET A   4      17.377  14.365   6.748  0.00  0.00    +0.041 C 
BRANCH  49  50
ATOM     50  CG  MET A   4      17.282  13.047   7.467  0.00  0.00    +0.060 C 
BRANCH  50  51
ATOM     51  SD  MET A   4      18.837  12.232   7.883  0.00  0.00    -0.139 S 
ATOM     52  CE  MET A   4      19.461  11.989   6.242  0.00  0.00    +0.069 C 
ENDBRANCH  50  51
ENDBRANCH  49  50
ENDBRANCH  22  49
ENDBRANCH  18  22
ENDBRANCH  17  20
ENDBRANCH  13  17
ENDBRANCH  11  14
ENDBRANCH   7  11
ENDBRANCH   6   8
BRANCH   6  53
ATOM     53  CB  LEU A   7      13.234  19.531   0.189  0.00  0.00    +0.029 C 
BRANCH  53  54
ATOM     54  CG  LEU A   7      12.717  19.327   1.621  0.00  0.00    +0.002 C 
ATOM     55  CD2 LEU A   7      12.819  17.853   2.066  0.00  0.00    +0.000 C 
ATOM     56  CD1 LEU A   7      11.280  19.794   1.641  0.00  0.00    +0.000 C 
ENDBRANCH  53  54
ENDBRANCH   6  53
ENDBRANCH   2   6
ENDBRANCH   1   4
BRANCH   1  57
ATOM     57  C   HIS A   8      13.956  17.592  -4.493  0.00  0.00    +0.241 C 
ATOM     58  O   HIS A   8      13.062  17.054  -3.821  0.00  0.00    -0.273 OA
ATOM     59  N   GLU A   9      13.985  17.536  -5.820  0.00  0.00    -0.297 N 
ATOM     60  H   GLU A   9      14.810  17.916  -6.327  0.00  0.00    +0.150 HD
BRANCH  59  61
ATOM     61  CA  GLU A   9      12.886  16.954  -6.583  0.00  0.00    +0.149 C 
BRANCH  61  62
ATOM     62  C   GLU A   9      12.569  15.517  -6.199  0.00  0.00    +0.241 C 
ATOM     63  N   GLY A  10      13.568  14.783  -5.714  0.00  0.00    -0.295 N 
ATOM     64  H   GLY A  10      14.526  15.186  -5.687  0.00  0.00    +0.150 HD
ATOM     65  O   GLU A   9      11.436  15.075  -6.361  0.00  0.00    -0.273 OA
BRANCH  63  66
ATOM     66  CA  GLY A  10      13.351  13.417  -5.216  0.00  0.00    +0.176 C 
BRANCH  66  67
ATOM     67  C   GLY A  10      12.428  13.381  -4.007  0.00  0.00    +0.243 C 
ATOM     68  N   HIS A  11      12.673  14.249  -3.031  0.00  0.00    -0.297 N 
ATOM     69  H   HIS A  11      13.511  14.862  -3.087  0.00  0.00    +0.150 HD
ATOM     70  O   GLY A  10      11.495  12.583  -3.951  0.00  0.00    -0.273 OA
BRANCH  68  71
ATOM     71  CA  HIS A  11      11.783  14.352  -1.884  0.00  0.00    +0.155 C 
BRANCH  71  72
ATOM     72  C   HIS A  11      10.406  14.821  -2.331  0.00  0.00    +0.241 C 
ATOM     73  O   HIS A  11       9.392  14.364  -1.785  0.00  0.00    -0.273 OA
ATOM     74  N   LEU A  12      10.358  15.694  -3.339  0.00  0.00    -0.297 N 
ATOM     75  H   LEU A  12      11.232  15.968  -3.831  0.00  0.00    +0.150 HD
BRANCH  74  76
ATOM     76  CA  LEU A  12       9.063  16.272  -3.758  0.00  0.00    +0.149 C 
BRANCH  76  77
ATOM     77  C   LEU A  12       8.173  15.275  -4.485  0.00  0.00    +0.241 C 
ATOM     78  O   LEU A  12       6.945  15.396  -4.460  0.00  0.00    -0.273 OA
ATOM     79  N   ALA A  13       8.782  14.265  -5.102  0.00  0.00    -0.297 N 
ATOM     80  H   ALA A  13       9.817  14.282  -5.205  0.00  0.00    +0.150 HD
BRANCH  79  81
ATOM     81  CA  ALA A  13       8.025  13.125  -5.641  0.00  0.00    +0.149 C 
ATOM     82  CB  ALA A  13       8.933  12.136  -6.378  0.00  0.00    +0.031 C 
BRANCH  81  83
ATOM     83  C   ALA A  13       7.231  12.399  -4.558  0.00  0.00    +0.241 C 
ATOM     84  N   LEU A  14       7.793  12.254  -3.351  0.00  0.00    -0.297 N 
ATOM     85  H   LEU A  14       8.755  12.610  -3.181  0.00  0.00    +0.150 HD
ATOM     86  O   ALA A  13       6.117  11.962  -4.823  0.00  0.00    -0.273 OA
BRANCH  84  87
ATOM     87  CA  LEU A  14       7.057  11.597  -2.271  0.00  0.00    +0.149 C 
BRANCH  87  88
ATOM     88  C   LEU A  14       5.952  12.519  -1.791  0.00  0.00    +0.241 C 
ATOM     89  O   LEU A  14       4.847  12.058  -1.496  0.00  0.00    -0.273 OA
ATOM     90  N   VAL A  15       6.262  13.814  -1.699  0.00  0.00    -0.298 N 
ATOM     91  H   VAL A  15       7.235  14.112  -1.914  0.00  0.00    +0.150 HD
BRANCH  90  92
ATOM     92  CA  VAL A  15       5.278  14.838  -1.305  0.00  0.00    +0.137 C 
BRANCH  92  93
ATOM     93  CB  VAL A  15       5.903  16.263  -1.272  0.00  0.00    +0.026 C 
ATOM     94  CG2 VAL A  15       6.897  16.426  -0.122  0.00  0.00    +0.002 C 
ATOM     95  CG1 VAL A  15       4.817  17.330  -1.180  0.00  0.00    +0.002 C 
ENDBRANCH  92  93
BRANCH  92  96
ATOM     96  C   VAL A  15       4.081  14.832  -2.268  0.00  0.00    +0.227 C 
ATOM     97  O   VAL A  15       2.924  14.823  -1.837  0.00  0.00    -0.286 OA
ENDBRANCH  92  96
ENDBRANCH  90  92
ENDBRANCH  87  88
BRANCH  87  98
ATOM     98  CB  LEU A  14       7.933  11.224  -1.068  0.00  0.00    +0.029 C 
BRANCH  98  99
ATOM     99  CG  LEU A  14       9.368  10.694  -1.109  0.00  0.00    +0.002 C 
ATOM    100  CD2 LEU A  14       9.657   9.886   0.164  0.00  0.00    +0.000 C 
ATOM    101  CD1 LEU A  14       9.725   9.922  -2.326  0.00  0.00    +0.000 C 
ENDBRANCH  98  99
ENDBRANCH  87  98
ENDBRANCH  84  87
ENDBRANCH  81  83
ENDBRANCH  79  81
ENDBRANCH  76  77
BRANCH  76 102
ATOM    102  CB  LEU A  12       9.260  17.550  -4.577  0.00  0.00    +0.029 C 
BRANCH 102 103
ATOM    103  CG  LEU A  12      10.026  18.671  -3.848  0.00  0.00    +0.002 C 
ATOM    104  CD2 LEU A  12       9.388  19.058  -2.515  0.00  0.00    +0.000 C 
ATOM    105  CD1 LEU A  12      10.201  19.908  -4.753  0.00  0.00    +0.000 C 
ENDBRANCH 102 103
ENDBRANCH  76 102
ENDBRANCH  74  76
ENDBRANCH  71  72
BRANCH  71 106
ATOM    106  CB  HIS A  11      12.310  15.333  -0.841  0.00  0.00    +0.076 C 
BRANCH 106 107
ATOM    107  CG  HIS A  11      13.695  15.033  -0.365  0.00  0.00    +0.082 A 
ATOM    108  CD2 HIS A  11      14.171  14.061   0.448  0.00  0.00    +0.115 A 
ATOM    109  NE2 HIS A  11      15.526  14.269   0.576  0.00  0.00    -0.221 NA
ATOM    110  CE1 HIS A  11      15.863  15.334  -0.127  0.00  0.00    +0.199 A 
ATOM    111  ND1 HIS A  11      14.778  15.811  -0.707  0.00  0.00    -0.227 NA
ENDBRANCH 106 107
ENDBRANCH  71 106
ENDBRANCH  68  71
ENDBRANCH  66  67
ENDBRANCH  63  66
ENDBRANCH  61  62
BRANCH  61 112
ATOM    112  CB  GLU A   9      13.162  17.056  -8.087  0.00  0.00    +0.041 C 
BRANCH 112 113
ATOM    113  CG  GLU A   9      11.906  17.257  -8.921  0.00  0.00    +0.116 C 
BRANCH 113 114
ATOM    114  CD  GLU A   9      11.223  18.579  -8.642  0.00  0.00    +0.365 C 
ATOM    115  OE2 GLU A   9      11.907  19.560  -8.288  0.00  0.00    -0.246 OA
ATOM    116  OE1 GLU A   9       9.988  18.629  -8.775  0.00  0.00    -0.246 OA
ENDBRANCH 113 114
ENDBRANCH 112 113
ENDBRANCH  61 112
ENDBRANCH  59  61
ENDBRANCH   1  57
BRANCH   1 117
ATOM    117  CB  HIS A   8      16.480  17.871  -4.193  0.00  0.00    +0.076 C 
BRANCH 117 118
ATOM    118  CG  HIS A   8      16.771  16.472  -3.732  0.00  0.00    +0.082 A 
ATOM    119  CD2 HIS A   8      17.730  15.990  -2.907  0.00  0.00    +0.115 A 
ATOM    120  NE2 HIS A   8      17.551  14.630  -2.830  0.00  0.00    -0.221 NA
ATOM    121  CE1 HIS A   8      16.519  14.287  -3.582  0.00  0.00    +0.199 A 
ATOM    122  ND1 HIS A   8      16.041  15.377  -4.153  0.00  0.00    -0.227 NA
ENDBRANCH 117 118
ENDBRANCH   1 117
TORSDOF 49
REMARK  Name = ../refined-set-2016/3coy/3coy_pocket.pdb
REMARK  236 active torsions:
REMARK  status: ('A' for Active; 'I' for Inactive)
REMARK    1  A    between atoms: _1  and  _3
REMARK    2  A    between atoms: _3  and  _4
REMARK    3  A    between atoms: _3  and  _6
REMARK    4  A    between atoms: _10  and  _11
REMARK    5  A    between atoms: _16  and  _18
REMARK    6  A    between atoms: _18  and  _19
REMARK    7  A    between atoms: _18  and  _21
REMARK    8  A    between atoms: _21  and  _22
REMARK    9  A    between atoms: _25  and  _27
REMARK   10  A    between atoms: _27  and  _28
REMARK   11  A    between atoms: _27  and  _30
REMARK   12  A    between atoms: _30  and  _31
REMARK   13  A    between atoms: _31  and  _32
REMARK   14  A    between atoms: _34  and  _36
REMARK   15  A    between atoms: _36  and  _37
REMARK   16  A    between atoms: _39  and  _41
REMARK   17  A    between atoms: _41  and  _42
REMARK   18  A    between atoms: _45  and  _47
REMARK   19  A    between atoms: _47  and  _48
REMARK   20  A    between atoms: _47  and  _50
REMARK   21  A    between atoms: _50  and  _51
REMARK   22  A    between atoms: _54  and  _56
REMARK   23  A    between atoms: _56  and  _57
REMARK   24  A    between atoms: _56  and  _59
REMARK   25  A    between atoms: _59  and  _60
REMARK   26  A    between atoms: _65  and  _67
REMARK   27  A    between atoms: _67  and  _68
REMARK   28  A    between atoms: _67  and  _70
REMARK   29  A    between atoms: _70  and  _71
REMARK   30  A    between atoms: _71  and  _72
REMARK   31  A    between atoms: _75  and  _77
REMARK   32  A    between atoms: _77  and  _78
REMARK   33  A    between atoms: _80  and  _82
REMARK   34  A    between atoms: _82  and  _83
REMARK   35  A    between atoms: _82  and  _85
REMARK   36  A    between atoms: _85  and  _86
REMARK   37  A    between atoms: _91  and  _93
REMARK   38  A    between atoms: _93  and  _94
REMARK   39  A    between atoms: _93  and  _96
REMARK   40  A    between atoms: _96  and  _97
REMARK   41  A    between atoms: _100  and  _102
REMARK   42  A    between atoms: _102  and  _103
REMARK   43  A    between atoms: _106  and  _108
REMARK   44  A    between atoms: _108  and  _109
REMARK   45  A    between atoms: _108  and  _111
REMARK   46  A    between atoms: _111  and  _112
REMARK   47  A    between atoms: _115  and  _117
REMARK   48  A    between atoms: _117  and  _118
REMARK   49  A    between atoms: _117  and  _120
REMARK   50  A    between atoms: _123  and  _125
REMARK   51  A    between atoms: _125  and  _126
REMARK   52  A    between atoms: _125  and  _128
REMARK   53  A    between atoms: _131  and  _133
REMARK   54  A    between atoms: _133  and  _134
REMARK   55  A    between atoms: _133  and  _136
REMARK   56  A    between atoms: _136  and  _137
REMARK   57  A    between atoms: _139  and  _141
REMARK   58  A    between atoms: _141  and  _142
REMARK   59  A    between atoms: _141  and  _144
REMARK   60  A    between atoms: _144  and  _145
REMARK   61  A    between atoms: _148  and  _150
REMARK   62  A    between atoms: _150  and  _151
REMARK   63  A    between atoms: _150  and  _153
REMARK   64  A    between atoms: _153  and  _154
REMARK   65  A    between atoms: _160  and  _162
REMARK   66  A    between atoms: _162  and  _163
REMARK   67  A    between atoms: _162  and  _165
REMARK   68  A    between atoms: _168  and  _170
REMARK   69  A    between atoms: _170  and  _171
REMARK   70  A    between atoms: _170  and  _173
REMARK   71  A    between atoms: _173  and  _174
REMARK   72  A    between atoms: _179  and  _181
REMARK   73  A    between atoms: _181  and  _182
REMARK   74  A    between atoms: _181  and  _184
REMARK   75  A    between atoms: _184  and  _185
REMARK   76  A    between atoms: _185  and  _186
REMARK   77  A    between atoms: _191  and  _193
REMARK   78  A    between atoms: _193  and  _194
REMARK   79  A    between atoms: _193  and  _196
REMARK   80  A    between atoms: _196  and  _197
REMARK   81  A    between atoms: _203  and  _205
REMARK   82  A    between atoms: _205  and  _206
REMARK   83  A    between atoms: _205  and  _208
REMARK   84  A    between atoms: _208  and  _209
REMARK   85  A    between atoms: _214  and  _215
REMARK   86  A    between atoms: _217  and  _219
REMARK   87  A    between atoms: _219  and  _220
REMARK   88  A    between atoms: _219  and  _222
REMARK   89  A    between atoms: _222  and  _223
REMARK   90  A    between atoms: _228  and  _229
REMARK   91  A    between atoms: _231  and  _233
REMARK   92  A    between atoms: _233  and  _234
REMARK   93  A    between atoms: _233  and  _236
REMARK   94  A    between atoms: _236  and  _237
REMARK   95  A    between atoms: _242  and  _244
REMARK   96  A    between atoms: _244  and  _245
REMARK   97  A    between atoms: _244  and  _247
REMARK   98  A    between atoms: _247  and  _248
REMARK   99  A    between atoms: _254  and  _256
REMARK  100  A    between atoms: _256  and  _257
REMARK  101  A    between atoms: _259  and  _261
REMARK  102  A    between atoms: _261  and  _262
REMARK  103  A    between atoms: _261  and  _264
REMARK  104  A    between atoms: _267  and  _269
REMARK  105  A    between atoms: _269  and  _270
REMARK  106  A    between atoms: _269  and  _272
REMARK  107  A    between atoms: _272  and  _273
REMARK  108  A    between atoms: _276  and  _278
REMARK  109  A    between atoms: _278  and  _279
REMARK  110  A    between atoms: _278  and  _281
REMARK  111  A    between atoms: _281  and  _282
REMARK  112  A    between atoms: _285  and  _287
REMARK  113  A    between atoms: _287  and  _288
REMARK  114  A    between atoms: _287  and  _290
REMARK  115  A    between atoms: _293  and  _295
REMARK  116  A    between atoms: _295  and  _296
REMARK  117  A    between atoms: _295  and  _298
REMARK  118  A    between atoms: _301  and  _303
REMARK  119  A    between atoms: _303  and  _304
REMARK  120  A    between atoms: _303  and  _306
REMARK  121  A    between atoms: _306  and  _307
REMARK  122  A    between atoms: _310  and  _312
REMARK  123  A    between atoms: _312  and  _313
REMARK  124  A    between atoms: _312  and  _315
REMARK  125  A    between atoms: _315  and  _316
REMARK  126  A    between atoms: _319  and  _321
REMARK  127  A    between atoms: _321  and  _322
REMARK  128  A    between atoms: _321  and  _324
REMARK  129  A    between atoms: _327  and  _329
REMARK  130  A    between atoms: _329  and  _330
REMARK  131  A    between atoms: _329  and  _332
REMARK  132  A    between atoms: _332  and  _333
REMARK  133  A    between atoms: _339  and  _341
REMARK  134  A    between atoms: _341  and  _342
REMARK  135  A    between atoms: _341  and  _344
REMARK  136  A    between atoms: _344  and  _345
REMARK  137  A    between atoms: _351  and  _353
REMARK  138  A    between atoms: _353  and  _354
REMARK  139  A    between atoms: _356  and  _358
REMARK  140  A    between atoms: _358  and  _359
REMARK  141  A    between atoms: _358  and  _361
REMARK  142  A    between atoms: _361  and  _362
REMARK  143  A    between atoms: _362  and  _363
REMARK  144  A    between atoms: _366  and  _368
REMARK  145  A    between atoms: _368  and  _369
REMARK  146  A    between atoms: _368  and  _371
REMARK  147  A    between atoms: _371  and  _372
REMARK  148  A    between atoms: _372  and  _373
REMARK  149  A    between atoms: _373  and  _374
REMARK  150  A    between atoms: _374  and  _375
REMARK  151  A    between atoms: _379  and  _381
REMARK  152  A    between atoms: _381  and  _382
REMARK  153  A    between atoms: _381  and  _384
REMARK  154  A    between atoms: _384  and  _385
REMARK  155  A    between atoms: _388  and  _390
REMARK  156  A    between atoms: _390  and  _391
REMARK  157  A    between atoms: _390  and  _393
REMARK  158  A    between atoms: _393  and  _394
REMARK  159  A    between atoms: _399  and  _400
REMARK  160  A    between atoms: _402  and  _404
REMARK  161  A    between atoms: _404  and  _405
REMARK  162  A    between atoms: _404  and  _407
REMARK  163  A    between atoms: _407  and  _408
REMARK  164  A    between atoms: _408  and  _409
REMARK  165  A    between atoms: _414  and  _416
REMARK  166  A    between atoms: _416  and  _417
REMARK  167  A    between atoms: _416  and  _419
REMARK  168  A    between atoms: _419  and  _420
REMARK  169  A    between atoms: _423  and  _425
REMARK  170  A    between atoms: _425  and  _426
REMARK  171  A    between atoms: _425  and  _428
REMARK  172  A    between atoms: _428  and  _429
REMARK  173  A    between atoms: _432  and  _434
REMARK  174  A    between atoms: _434  and  _435
REMARK  175  A    between atoms: _434  and  _437
REMARK  176  A    between atoms: _440  and  _442
REMARK  177  A    between atoms: _442  and  _443
REMARK  178  A    between atoms: _445  and  _447
REMARK  179  A    between atoms: _447  and  _448
REMARK  180  A    between atoms: _447  and  _450
REMARK  181  A    between atoms: _454  and  _455
REMARK  182  A    between atoms: _460  and  _462
REMARK  183  A    between atoms: _462  and  _463
REMARK  184  A    between atoms: _462  and  _465
REMARK  185  A    between atoms: _465  and  _466
REMARK  186  A    between atoms: _469  and  _471
REMARK  187  A    between atoms: _471  and  _472
REMARK  188  A    between atoms: _471  and  _474
REMARK  189  A    between atoms: _477  and  _479
REMARK  190  A    between atoms: _479  and  _480
REMARK  191  A    between atoms: _479  and  _482
REMARK  192  A    between atoms: _482  and  _483
REMARK  193  A    between atoms: _483  and  _484
REMARK  194  A    between atoms: _484  and  _485
REMARK  195  A    between atoms: _494  and  _496
REMARK  196  A    between atoms: _496  and  _497
REMARK  197  A    between atoms: _496  and  _499
REMARK  198  A    between atoms: _499  and  _500
REMARK  199  A    between atoms: _500  and  _501
REMARK  200  A    between atoms: _504  and  _506
REMARK  201  A    between atoms: _506  and  _507
REMARK  202  A    between atoms: _506  and  _509
REMARK  203  A    between atoms: _509  and  _510
REMARK  204  A    between atoms: _513  and  _515
REMARK  205  A    between atoms: _515  and  _516
REMARK  206  A    between atoms: _519  and  _521
REMARK  207  A    between atoms: _521  and  _522
REMARK  208  A    between atoms: _521  and  _524
REMARK  209  A    between atoms: _524  and  _525
REMARK  210  A    between atoms: _525  and  _526
REMARK  211  A    between atoms: _528  and  _530
REMARK  212  A    between atoms: _530  and  _531
REMARK  213  A    between atoms: _530  and  _533
REMARK  214  A    between atoms: _533  and  _534
REMARK  215  A    between atoms: _536  and  _538
REMARK  216  A    between atoms: _538  and  _539
REMARK  217  A    between atoms: _538  and  _541
REMARK  218  A    between atoms: _541  and  _542
REMARK  219  A    between atoms: _544  and  _546
REMARK  220  A    between atoms: _546  and  _547
REMARK  221  A    between atoms: _546  and  _549
REMARK  222  A    between atoms: _549  and  _550
REMARK  223  A    between atoms: _550  and  _551
REMARK  224  A    between atoms: _551  and  _552
REMARK  225  A    between atoms: _561  and  _563
REMARK  226  A    between atoms: _563  and  _564
REMARK  227  A    between atoms: _563  and  _566
REMARK  228  A    between atoms: _566  and  _567
REMARK  229  A    between atoms: _572  and  _574
REMARK  230  A    between atoms: _574  and  _575
REMARK  231  A    between atoms: _574  and  _577
REMARK  232  A    between atoms: _577  and  _578
REMARK  233  A    between atoms: _581  and  _583
REMARK  234  A    between atoms: _583  and  _584
REMARK  235  A    between atoms: _583  and  _586
REMARK  236  A    between atoms: _586  and  _587
REMARK                            x       y       z     vdW  Elec       q    Type
REMARK                         _______ _______ _______ _____ _____    ______ ____
ROOT
ATOM      1  CA  PHE A   4      14.575  16.152  11.389  0.00  0.00    +0.153 C 
ENDROOT
BRANCH   1   2
ATOM      2  C   PHE A   4      15.806  15.366  11.018  0.00  0.00    +0.241 C 
ATOM      3  N   VAL A   5      16.928  15.787  11.586  0.00  0.00    -0.297 N 
ATOM      4  H   VAL A   5      16.895  16.635  12.187  0.00  0.00    +0.150 HD
ATOM      5  O   PHE A   4      15.750  14.411  10.235  0.00  0.00    -0.273 OA
BRANCH   3   6
ATOM      6  CA  VAL A   5      18.197  15.113  11.403  0.00  0.00    +0.149 C 
BRANCH   6   7
ATOM      7  C   VAL A   5      18.438  14.425  12.715  0.00  0.00    +0.241 C 
ATOM      8  O   VAL A   5      18.518  15.057  13.782  0.00  0.00    -0.273 OA
ATOM      9  N   ASN A   6      18.538  13.114  12.603  0.00  0.00    -0.298 N 
ATOM     10  H   ASN A   6      18.565  12.716  11.643  0.00  0.00    +0.150 HD
BRANCH   9  11
ATOM     11  CA  ASN A   6      18.612  12.194  13.704  0.00  0.00    +0.146 C 
BRANCH  11  12
ATOM     12  C   ASN A   6      20.068  11.978  14.089  0.00  0.00    +0.227 C 
ATOM     13  O   ASN A   6      20.834  11.442  13.283  0.00  0.00    -0.286 OA
ENDBRANCH  11  12
BRANCH  11  14
ATOM     14  CB  ASN A   6      18.006  10.878  13.196  0.00  0.00    +0.112 C 
BRANCH  14  15
ATOM     15  CG  ASN A   6      17.686   9.909  14.301  0.00  0.00    +0.222 C 
ATOM     16  OD1 ASN A   6      17.188  10.300  15.350  0.00  0.00    -0.275 OA
ATOM     17  ND2 ASN A   6      17.943   8.624  14.057  0.00  0.00    -0.329 N 
ATOM     18 HD21 ASN A   6      17.720   7.904  14.773  0.00  0.00    +0.145 HD
ATOM     19 HD22 ASN A   6      18.367   8.342  13.150  0.00  0.00    +0.145 HD
ENDBRANCH  14  15
ENDBRANCH  11  14
ENDBRANCH   9  11
ENDBRANCH   6   7
BRANCH   6  20
ATOM     20  CB  VAL A   5      19.361  16.069  11.067  0.00  0.00    +0.027 C 
ATOM     21  CG2 VAL A   5      20.676  15.264  10.819  0.00  0.00    +0.002 C 
ATOM     22  CG1 VAL A   5      19.032  16.945   9.846  0.00  0.00    +0.002 C 
ENDBRANCH   6  20
ENDBRANCH   3   6
ENDBRANCH   1   2
BRANCH   1  25
ATOM     23  C   ILE A   3      12.910  17.432  10.146  0.00  0.00    +0.241 C 
ATOM     24  O   ILE A   3      12.648  18.148  11.107  0.00  0.00    -0.273 OA
ATOM     25  N   PHE A   4      13.824  16.473  10.180  0.00  0.00    -0.297 N 
ATOM     26  H   PHE A   4      14.013  15.930   9.314  0.00  0.00    +0.150 HD
BRANCH  23  27
ATOM     27  CA  ILE A   3      12.132  17.577   8.846  0.00  0.00    +0.149 C 
BRANCH  27  29
ATOM     28  C   SER A   2      10.140  16.251   8.438  0.00  0.00    +0.243 C 
ATOM     29  N   ILE A   3      10.748  17.197   9.134  0.00  0.00    -0.297 N 
ATOM     30  H   ILE A   3      10.234  17.679   9.899  0.00  0.00    +0.150 HD
ATOM     31  O   SER A   2      10.643  15.719   7.436  0.00  0.00    -0.273 OA
BRANCH  28  32
ATOM     32  CA  SER A   2       8.747  15.884   8.924  0.00  0.00    +0.178 C 
BRANCH  32  35
ATOM     33  C   VAL A   1       7.184  16.656   7.300  0.00  0.00    +0.238 C 
ATOM     34  O   VAL A   1       7.148  17.744   7.864  0.00  0.00    -0.274 OA
ATOM     35  N   SER A   2       7.903  15.644   7.768  0.00  0.00    -0.295 N 
ATOM     36  H   SER A   2       7.863  14.706   7.320  0.00  0.00    +0.150 HD
BRANCH  33  37
ATOM     37  CA  VAL A   1       6.371  16.401   6.060  0.00  0.00    +0.145 C 
BRANCH  37  38
ATOM     38  CB  VAL A   1       6.863  17.330   4.900  0.00  0.00    +0.025 C 
ATOM     39  CG2 VAL A   1       8.398  17.189   4.654  0.00  0.00    +0.002 C 
ATOM     40  CG1 VAL A   1       6.060  17.068   3.619  0.00  0.00    +0.002 C 
ENDBRANCH  37  38
BRANCH  37  41
ATOM     41  N   VAL A   1       4.975  16.633   6.410  0.00  0.00    -0.238 NA
ATOM     42  H   VAL A   1       4.660  17.604   6.607  0.00  0.00    +0.142 HD
ENDBRANCH  37  41
ENDBRANCH  33  37
ENDBRANCH  32  35
BRANCH  32  43
ATOM     43  CB  SER A   2       8.773  14.687   9.887  0.00  0.00    +0.166 C 
BRANCH  43  44
ATOM     44  OG  SER A   2       9.334  13.565   9.212  0.00  0.00    -0.380 OA
ATOM     45  H   SER A   2      10.255  13.783   8.922  0.00  0.00    +0.211 HD
ENDBRANCH  43  44
ENDBRANCH  32  43
ENDBRANCH  28  32
ENDBRANCH  27  29
BRANCH  27  46
ATOM     46  CB  ILE A   3      12.238  19.034   8.300  0.00  0.00    +0.027 C 
ATOM     47  CG2 ILE A   3      13.741  19.434   8.136  0.00  0.00    +0.002 C 
BRANCH  46  48
ATOM     48  CG1 ILE A   3      11.436  19.179   7.004  0.00  0.00    +0.002 C 
ATOM     49  CD1 ILE A   3      11.150  20.630   6.548  0.00  0.00    +0.000 C 
ENDBRANCH  46  48
ENDBRANCH  27  46
ENDBRANCH  23  27
ENDBRANCH   1  25
BRANCH   1  50
ATOM     50  CB  PHE A   4      13.714  15.333  12.381  0.00  0.00    +0.055 C 
BRANCH  50  51
ATOM     51  CG  PHE A   4      14.413  14.983  13.677  0.00  0.00    -0.020 A 
ATOM     52  CD2 PHE A   4      14.676  15.951  14.634  0.00  0.00    -0.004 A 
ATOM     53  CE2 PHE A   4      15.308  15.621  15.831  0.00  0.00    -0.000 A 
ATOM     54  CZ  PHE A   4      15.674  14.285  16.097  0.00  0.00    -0.000 A 
ATOM     55  CE1 PHE A   4      15.397  13.317  15.175  0.00  0.00    -0.000 A 
ATOM     56  CD1 PHE A   4      14.777  13.661  13.953  0.00  0.00    -0.004 A 
ENDBRANCH  50  51
ENDBRANCH   1  50
TORSDOF 22
REMARK  Name = ../refined-set-2016/3coy/3coy_pocket.pdb
REMARK  236 active torsions:
REMARK  status: ('A' for Active; 'I' for Inactive)
REMARK    1  A    between atoms: _1  and  _3
REMARK    2  A    between atoms: _3  and  _4
REMARK    3  A    between atoms: _3  and  _6
REMARK    4  A    between atoms: _10  and  _11
REMARK    5  A    between atoms: _16  and  _18
REMARK    6  A    between atoms: _18  and  _19
REMARK    7  A    between atoms: _18  and  _21
REMARK    8  A    between atoms: _21  and  _22
REMARK    9  A    between atoms: _25  and  _27
REMARK   10  A    between atoms: _27  and  _28
REMARK   11  A    between atoms: _27  and  _30
REMARK   12  A    between atoms: _30  and  _31
REMARK   13  A    between atoms: _31  and  _32
REMARK   14  A    between atoms: _34  and  _36
REMARK   15  A    between atoms: _36  and  _37
REMARK   16  A    between atoms: _39  and  _41
REMARK   17  A    between atoms: _41  and  _42
REMARK   18  A    between atoms: _45  and  _47
REMARK   19  A    between atoms: _47  and  _48
REMARK   20  A    between atoms: _47  and  _50
REMARK   21  A    between atoms: _50  and  _51
REMARK   22  A    between atoms: _54  and  _56
REMARK   23  A    between atoms: _56  and  _57
REMARK   24  A    between atoms: _56  and  _59
REMARK   25  A    between atoms: _59  and  _60
REMARK   26  A    between atoms: _65  and  _67
REMARK   27  A    between atoms: _67  and  _68
REMARK   28  A    between atoms: _67  and  _70
REMARK   29  A    between atoms: _70  and  _71
REMARK   30  A    between atoms: _71  and  _72
REMARK   31  A    between atoms: _75  and  _77
REMARK   32  A    between atoms: _77  and  _78
REMARK   33  A    between atoms: _80  and  _82
REMARK   34  A    between atoms: _82  and  _83
REMARK   35  A    between atoms: _82  and  _85
REMARK   36  A    between atoms: _85  and  _86
REMARK   37  A    between atoms: _91  and  _93
REMARK   38  A    between atoms: _93  and  _94
REMARK   39  A    between atoms: _93  and  _96
REMARK   40  A    between atoms: _96  and  _97
REMARK   41  A    between atoms: _100  and  _102
REMARK   42  A    between atoms: _102  and  _103
REMARK   43  A    between atoms: _106  and  _108
REMARK   44  A    between atoms: _108  and  _109
REMARK   45  A    between atoms: _108  and  _111
REMARK   46  A    between atoms: _111  and  _112
REMARK   47  A    between atoms: _115  and  _117
REMARK   48  A    between atoms: _117  and  _118
REMARK   49  A    between atoms: _117  and  _120
REMARK   50  A    between atoms: _123  and  _125
REMARK   51  A    between atoms: _125  and  _126
REMARK   52  A    between atoms: _125  and  _128
REMARK   53  A    between atoms: _131  and  _133
REMARK   54  A    between atoms: _133  and  _134
REMARK   55  A    between atoms: _133  and  _136
REMARK   56  A    between atoms: _136  and  _137
REMARK   57  A    between atoms: _139  and  _141
REMARK   58  A    between atoms: _141  and  _142
REMARK   59  A    between atoms: _141  and  _144
REMARK   60  A    between atoms: _144  and  _145
REMARK   61  A    between atoms: _148  and  _150
REMARK   62  A    between atoms: _150  and  _151
REMARK   63  A    between atoms: _150  and  _153
REMARK   64  A    between atoms: _153  and  _154
REMARK   65  A    between atoms: _160  and  _162
REMARK   66  A    between atoms: _162  and  _163
REMARK   67  A    between atoms: _162  and  _165
REMARK   68  A    between atoms: _168  and  _170
REMARK   69  A    between atoms: _170  and  _171
REMARK   70  A    between atoms: _170  and  _173
REMARK   71  A    between atoms: _173  and  _174
REMARK   72  A    between atoms: _179  and  _181
REMARK   73  A    between atoms: _181  and  _182
REMARK   74  A    between atoms: _181  and  _184
REMARK   75  A    between atoms: _184  and  _185
REMARK   76  A    between atoms: _185  and  _186
REMARK   77  A    between atoms: _191  and  _193
REMARK   78  A    between atoms: _193  and  _194
REMARK   79  A    between atoms: _193  and  _196
REMARK   80  A    between atoms: _196  and  _197
REMARK   81  A    between atoms: _203  and  _205
REMARK   82  A    between atoms: _205  and  _206
REMARK   83  A    between atoms: _205  and  _208
REMARK   84  A    between atoms: _208  and  _209
REMARK   85  A    between atoms: _214  and  _215
REMARK   86  A    between atoms: _217  and  _219
REMARK   87  A    between atoms: _219  and  _220
REMARK   88  A    between atoms: _219  and  _222
REMARK   89  A    between atoms: _222  and  _223
REMARK   90  A    between atoms: _228  and  _229
REMARK   91  A    between atoms: _231  and  _233
REMARK   92  A    between atoms: _233  and  _234
REMARK   93  A    between atoms: _233  and  _236
REMARK   94  A    between atoms: _236  and  _237
REMARK   95  A    between atoms: _242  and  _244
REMARK   96  A    between atoms: _244  and  _245
REMARK   97  A    between atoms: _244  and  _247
REMARK   98  A    between atoms: _247  and  _248
REMARK   99  A    between atoms: _254  and  _256
REMARK  100  A    between atoms: _256  and  _257
REMARK  101  A    between atoms: _259  and  _261
REMARK  102  A    between atoms: _261  and  _262
REMARK  103  A    between atoms: _261  and  _264
REMARK  104  A    between atoms: _267  and  _269
REMARK  105  A    between atoms: _269  and  _270
REMARK  106  A    between atoms: _269  and  _272
REMARK  107  A    between atoms: _272  and  _273
REMARK  108  A    between atoms: _276  and  _278
REMARK  109  A    between atoms: _278  and  _279
REMARK  110  A    between atoms: _278  and  _281
REMARK  111  A    between atoms: _281  and  _282
REMARK  112  A    between atoms: _285  and  _287
REMARK  113  A    between atoms: _287  and  _288
REMARK  114  A    between atoms: _287  and  _290
REMARK  115  A    between atoms: _293  and  _295
REMARK  116  A    between atoms: _295  and  _296
REMARK  117  A    between atoms: _295  and  _298
REMARK  118  A    between atoms: _301  and  _303
REMARK  119  A    between atoms: _303  and  _304
REMARK  120  A    between atoms: _303  and  _306
REMARK  121  A    between atoms: _306  and  _307
REMARK  122  A    between atoms: _310  and  _312
REMARK  123  A    between atoms: _312  and  _313
REMARK  124  A    between atoms: _312  and  _315
REMARK  125  A    between atoms: _315  and  _316
REMARK  126  A    between atoms: _319  and  _321
REMARK  127  A    between atoms: _321  and  _322
REMARK  128  A    between atoms: _321  and  _324
REMARK  129  A    between atoms: _327  and  _329
REMARK  130  A    between atoms: _329  and  _330
REMARK  131  A    between atoms: _329  and  _332
REMARK  132  A    between atoms: _332  and  _333
REMARK  133  A    between atoms: _339  and  _341
REMARK  134  A    between atoms: _341  and  _342
REMARK  135  A    between atoms: _341  and  _344
REMARK  136  A    between atoms: _344  and  _345
REMARK  137  A    between atoms: _351  and  _353
REMARK  138  A    between atoms: _353  and  _354
REMARK  139  A    between atoms: _356  and  _358
REMARK  140  A    between atoms: _358  and  _359
REMARK  141  A    between atoms: _358  and  _361
REMARK  142  A    between atoms: _361  and  _362
REMARK  143  A    between atoms: _362  and  _363
REMARK  144  A    between atoms: _366  and  _368
REMARK  145  A    between atoms: _368  and  _369
REMARK  146  A    between atoms: _368  and  _371
REMARK  147  A    between atoms: _371  and  _372
REMARK  148  A    between atoms: _372  and  _373
REMARK  149  A    between atoms: _373  and  _374
REMARK  150  A    between atoms: _374  and  _375
REMARK  151  A    between atoms: _379  and  _381
REMARK  152  A    between atoms: _381  and  _382
REMARK  153  A    between atoms: _381  and  _384
REMARK  154  A    between atoms: _384  and  _385
REMARK  155  A    between atoms: _388  and  _390
REMARK  156  A    between atoms: _390  and  _391
REMARK  157  A    between atoms: _390  and  _393
REMARK  158  A    between atoms: _393  and  _394
REMARK  159  A    between atoms: _399  and  _400
REMARK  160  A    between atoms: _402  and  _404
REMARK  161  A    between atoms: _404  and  _405
REMARK  162  A    between atoms: _404  and  _407
REMARK  163  A    between atoms: _407  and  _408
REMARK  164  A    between atoms: _408  and  _409
REMARK  165  A    between atoms: _414  and  _416
REMARK  166  A    between atoms: _416  and  _417
REMARK  167  A    between atoms: _416  and  _419
REMARK  168  A    between atoms: _419  and  _420
REMARK  169  A    between atoms: _423  and  _425
REMARK  170  A    between atoms: _425  and  _426
REMARK  171  A    between atoms: _425  and  _428
REMARK  172  A    between atoms: _428  and  _429
REMARK  173  A    between atoms: _432  and  _434
REMARK  174  A    between atoms: _434  and  _435
REMARK  175  A    between atoms: _434  and  _437
REMARK  176  A    between atoms: _440  and  _442
REMARK  177  A    between atoms: _442  and  _443
REMARK  178  A    between atoms: _445  and  _447
REMARK  179  A    between atoms: _447  and  _448
REMARK  180  A    between atoms: _447  and  _450
REMARK  181  A    between atoms: _454  and  _455
REMARK  182  A    between atoms: _460  and  _462
REMARK  183  A    between atoms: _462  and  _463
REMARK  184  A    between atoms: _462  and  _465
REMARK  185  A    between atoms: _465  and  _466
REMARK  186  A    between atoms: _469  and  _471
REMARK  187  A    between atoms: _471  and  _472
REMARK  188  A    between atoms: _471  and  _474
REMARK  189  A    between atoms: _477  and  _479
REMARK  190  A    between atoms: _479  and  _480
REMARK  191  A    between atoms: _479  and  _482
REMARK  192  A    between atoms: _482  and  _483
REMARK  193  A    between atoms: _483  and  _484
REMARK  194  A    between atoms: _484  and  _485
REMARK  195  A    between atoms: _494  and  _496
REMARK  196  A    between atoms: _496  and  _497
REMARK  197  A    between atoms: _496  and  _499
REMARK  198  A    between atoms: _499  and  _500
REMARK  199  A    between atoms: _500  and  _501
REMARK  200  A    between atoms: _504  and  _506
REMARK  201  A    between atoms: _506  and  _507
REMARK  202  A    between atoms: _506  and  _509
REMARK  203  A    between atoms: _509  and  _510
REMARK  204  A    between atoms: _513  and  _515
REMARK  205  A    between atoms: _515  and  _516
REMARK  206  A    between atoms: _519  and  _521
REMARK  207  A    between atoms: _521  and  _522
REMARK  208  A    between atoms: _521  and  _524
REMARK  209  A    between atoms: _524  and  _525
REMARK  210  A    between atoms: _525  and  _526
REMARK  211  A    between atoms: _528  and  _530
REMARK  212  A    between atoms: _530  and  _531
REMARK  213  A    between atoms: _530  and  _533
REMARK  214  A    between atoms: _533  and  _534
REMARK  215  A    between atoms: _536  and  _538
REMARK  216  A    between atoms: _538  and  _539
REMARK  217  A    between atoms: _538  and  _541
REMARK  218  A    between atoms: _541  and  _542
REMARK  219  A    between atoms: _544  and  _546
REMARK  220  A    between atoms: _546  and  _547
REMARK  221  A    between atoms: _546  and  _549
REMARK  222  A    between atoms: _549  and  _550
REMARK  223  A    between atoms: _550  and  _551
REMARK  224  A    between atoms: _551  and  _552
REMARK  225  A    between atoms: _561  and  _563
REMARK  226  A    between atoms: _563  and  _564
REMARK  227  A    between atoms: _563  and  _566
REMARK  228  A    between atoms: _566  and  _567
REMARK  229  A    between atoms: _572  and  _574
REMARK  230  A    between atoms: _574  and  _575
REMARK  231  A    between atoms: _574  and  _577
REMARK  232  A    between atoms: _577  and  _578
REMARK  233  A    between atoms: _581  and  _583
REMARK  234  A    between atoms: _583  and  _584
REMARK  235  A    between atoms: _583  and  _586
REMARK  236  A    between atoms: _586  and  _587
REMARK                            x       y       z     vdW  Elec       q    Type
REMARK                         _______ _______ _______ _____ _____    ______ ____
ROOT
ATOM      1  C   GLN A   1      22.939   7.374  11.928  0.00  0.00    +0.238 C 
ATOM      2  N   PHE A   2      23.641   8.313  12.568  0.00  0.00    -0.298 N 
ATOM      3  H   PHE A   2      23.198   8.796  13.375  0.00  0.00    +0.150 HD
ATOM      4  O   GLN A   1      23.344   6.811  10.898  0.00  0.00    -0.274 OA
ENDROOT
BRANCH   1   5
ATOM      5  CA  GLN A   1      21.566   7.006  12.543  0.00  0.00    +0.145 C 
BRANCH   5   6
ATOM      6  N   GLN A   1      21.213   7.750  13.768  0.00  0.00    -0.238 NA
ATOM      7  H   GLN A   1      20.473   8.479  13.709  0.00  0.00    +0.142 HD
ENDBRANCH   5   6
BRANCH   5   8
ATOM      8  CB  GLN A   1      20.428   7.090  11.505  0.00  0.00    +0.036 C 
BRANCH   8   9
ATOM      9  CG  GLN A   1      20.183   8.486  10.901  0.00  0.00    +0.087 C 
BRANCH   9  10
ATOM     10  CD  GLN A   1      18.877   8.580  10.107  0.00  0.00    +0.219 C 
ATOM     11  NE2 GLN A   1      17.752   8.466  10.801  0.00  0.00    -0.329 N 
ATOM     12 HE21 GLN A   1      17.788   8.324  11.831  0.00  0.00    +0.145 HD
ATOM     13 HE22 GLN A   1      16.834   8.518  10.315  0.00  0.00    +0.145 HD
ATOM     14  OE1 GLN A   1      18.888   8.749   8.885  0.00  0.00    -0.275 OA
ENDBRANCH   9  10
ENDBRANCH   8   9
ENDBRANCH   5   8
ENDBRANCH   1   5
BRANCH   2  15
ATOM     15  CA  PHE A   2      25.007   8.698  12.190  0.00  0.00    +0.141 C 
BRANCH  15  16
ATOM     16  C   PHE A   2      26.027   8.102  13.171  0.00  0.00    +0.227 C 
ATOM     17  O   PHE A   2      25.730   7.929  14.358  0.00  0.00    -0.286 OA
ENDBRANCH  15  16
BRANCH  15  18
ATOM     18  CB  PHE A   2      25.150  10.232  12.122  0.00  0.00    +0.054 C 
BRANCH  18  19
ATOM     19  CG  PHE A   2      24.489  10.864  10.908  0.00  0.00    -0.020 A 
ATOM     20  CD2 PHE A   2      23.143  11.246  10.942  0.00  0.00    -0.004 A 
ATOM     21  CE2 PHE A   2      22.533  11.832   9.826  0.00  0.00    -0.000 A 
ATOM     22  CZ  PHE A   2      23.272  12.048   8.661  0.00  0.00    -0.000 A 
ATOM     23  CE1 PHE A   2      24.617  11.676   8.611  0.00  0.00    -0.000 A 
ATOM     24  CD1 PHE A   2      25.219  11.089   9.734  0.00  0.00    -0.004 A 
ENDBRANCH  18  19
ENDBRANCH  15  18
ENDBRANCH   2  15
TORSDOF 9
REMARK  Name = ../refined-set-2016/3coy/3coy_pocket.pdb
REMARK  236 active torsions:
REMARK  status: ('A' for Active; 'I' for Inactive)
REMARK    1  A    between atoms: _1  and  _3
REMARK    2  A    between atoms: _3  and  _4
REMARK    3  A    between atoms: _3  and  _6
REMARK    4  A    between atoms: _10  and  _11
REMARK    5  A    between atoms: _16  and  _18
REMARK    6  A    between atoms: _18  and  _19
REMARK    7  A    between atoms: _18  and  _21
REMARK    8  A    between atoms: _21  and  _22
REMARK    9  A    between atoms: _25  and  _27
REMARK   10  A    between atoms: _27  and  _28
REMARK   11  A    between atoms: _27  and  _30
REMARK   12  A    between atoms: _30  and  _31
REMARK   13  A    between atoms: _31  and  _32
REMARK   14  A    between atoms: _34  and  _36
REMARK   15  A    between atoms: _36  and  _37
REMARK   16  A    between atoms: _39  and  _41
REMARK   17  A    between atoms: _41  and  _42
REMARK   18  A    between atoms: _45  and  _47
REMARK   19  A    between atoms: _47  and  _48
REMARK   20  A    between atoms: _47  and  _50
REMARK   21  A    between atoms: _50  and  _51
REMARK   22  A    between atoms: _54  and  _56
REMARK   23  A    between atoms: _56  and  _57
REMARK   24  A    between atoms: _56  and  _59
REMARK   25  A    between atoms: _59  and  _60
REMARK   26  A    between atoms: _65  and  _67
REMARK   27  A    between atoms: _67  and  _68
REMARK   28  A    between atoms: _67  and  _70
REMARK   29  A    between atoms: _70  and  _71
REMARK   30  A    between atoms: _71  and  _72
REMARK   31  A    between atoms: _75  and  _77
REMARK   32  A    between atoms: _77  and  _78
REMARK   33  A    between atoms: _80  and  _82
REMARK   34  A    between atoms: _82  and  _83
REMARK   35  A    between atoms: _82  and  _85
REMARK   36  A    between atoms: _85  and  _86
REMARK   37  A    between atoms: _91  and  _93
REMARK   38  A    between atoms: _93  and  _94
REMARK   39  A    between atoms: _93  and  _96
REMARK   40  A    between atoms: _96  and  _97
REMARK   41  A    between atoms: _100  and  _102
REMARK   42  A    between atoms: _102  and  _103
REMARK   43  A    between atoms: _106  and  _108
REMARK   44  A    between atoms: _108  and  _109
REMARK   45  A    between atoms: _108  and  _111
REMARK   46  A    between atoms: _111  and  _112
REMARK   47  A    between atoms: _115  and  _117
REMARK   48  A    between atoms: _117  and  _118
REMARK   49  A    between atoms: _117  and  _120
REMARK   50  A    between atoms: _123  and  _125
REMARK   51  A    between atoms: _125  and  _126
REMARK   52  A    between atoms: _125  and  _128
REMARK   53  A    between atoms: _131  and  _133
REMARK   54  A    between atoms: _133  and  _134
REMARK   55  A    between atoms: _133  and  _136
REMARK   56  A    between atoms: _136  and  _137
REMARK   57  A    between atoms: _139  and  _141
REMARK   58  A    between atoms: _141  and  _142
REMARK   59  A    between atoms: _141  and  _144
REMARK   60  A    between atoms: _144  and  _145
REMARK   61  A    between atoms: _148  and  _150
REMARK   62  A    between atoms: _150  and  _151
REMARK   63  A    between atoms: _150  and  _153
REMARK   64  A    between atoms: _153  and  _154
REMARK   65  A    between atoms: _160  and  _162
REMARK   66  A    between atoms: _162  and  _163
REMARK   67  A    between atoms: _162  and  _165
REMARK   68  A    between atoms: _168  and  _170
REMARK   69  A    between atoms: _170  and  _171
REMARK   70  A    between atoms: _170  and  _173
REMARK   71  A    between atoms: _173  and  _174
REMARK   72  A    between atoms: _179  and  _181
REMARK   73  A    between atoms: _181  and  _182
REMARK   74  A    between atoms: _181  and  _184
REMARK   75  A    between atoms: _184  and  _185
REMARK   76  A    between atoms: _185  and  _186
REMARK   77  A    between atoms: _191  and  _193
REMARK   78  A    between atoms: _193  and  _194
REMARK   79  A    between atoms: _193  and  _196
REMARK   80  A    between atoms: _196  and  _197
REMARK   81  A    between atoms: _203  and  _205
REMARK   82  A    between atoms: _205  and  _206
REMARK   83  A    between atoms: _205  and  _208
REMARK   84  A    between atoms: _208  and  _209
REMARK   85  A    between atoms: _214  and  _215
REMARK   86  A    between atoms: _217  and  _219
REMARK   87  A    between atoms: _219  and  _220
REMARK   88  A    between atoms: _219  and  _222
REMARK   89  A    between atoms: _222  and  _223
REMARK   90  A    between atoms: _228  and  _229
REMARK   91  A    between atoms: _231  and  _233
REMARK   92  A    between atoms: _233  and  _234
REMARK   93  A    between atoms: _233  and  _236
REMARK   94  A    between atoms: _236  and  _237
REMARK   95  A    between atoms: _242  and  _244
REMARK   96  A    between atoms: _244  and  _245
REMARK   97  A    between atoms: _244  and  _247
REMARK   98  A    between atoms: _247  and  _248
REMARK   99  A    between atoms: _254  and  _256
REMARK  100  A    between atoms: _256  and  _257
REMARK  101  A    between atoms: _259  and  _261
REMARK  102  A    between atoms: _261  and  _262
REMARK  103  A    between atoms: _261  and  _264
REMARK  104  A    between atoms: _267  and  _269
REMARK  105  A    between atoms: _269  and  _270
REMARK  106  A    between atoms: _269  and  _272
REMARK  107  A    between atoms: _272  and  _273
REMARK  108  A    between atoms: _276  and  _278
REMARK  109  A    between atoms: _278  and  _279
REMARK  110  A    between atoms: _278  and  _281
REMARK  111  A    between atoms: _281  and  _282
REMARK  112  A    between atoms: _285  and  _287
REMARK  113  A    between atoms: _287  and  _288
REMARK  114  A    between atoms: _287  and  _290
REMARK  115  A    between atoms: _293  and  _295
REMARK  116  A    between atoms: _295  and  _296
REMARK  117  A    between atoms: _295  and  _298
REMARK  118  A    between atoms: _301  and  _303
REMARK  119  A    between atoms: _303  and  _304
REMARK  120  A    between atoms: _303  and  _306
REMARK  121  A    between atoms: _306  and  _307
REMARK  122  A    between atoms: _310  and  _312
REMARK  123  A    between atoms: _312  and  _313
REMARK  124  A    between atoms: _312  and  _315
REMARK  125  A    between atoms: _315  and  _316
REMARK  126  A    between atoms: _319  and  _321
REMARK  127  A    between atoms: _321  and  _322
REMARK  128  A    between atoms: _321  and  _324
REMARK  129  A    between atoms: _327  and  _329
REMARK  130  A    between atoms: _329  and  _330
REMARK  131  A    between atoms: _329  and  _332
REMARK  132  A    between atoms: _332  and  _333
REMARK  133  A    between atoms: _339  and  _341
REMARK  134  A    between atoms: _341  and  _342
REMARK  135  A    between atoms: _341  and  _344
REMARK  136  A    between atoms: _344  and  _345
REMARK  137  A    between atoms: _351  and  _353
REMARK  138  A    between atoms: _353  and  _354
REMARK  139  A    between atoms: _356  and  _358
REMARK  140  A    between atoms: _358  and  _359
REMARK  141  A    between atoms: _358  and  _361
REMARK  142  A    between atoms: _361  and  _362
REMARK  143  A    between atoms: _362  and  _363
REMARK  144  A    between atoms: _366  and  _368
REMARK  145  A    between atoms: _368  and  _369
REMARK  146  A    between atoms: _368  and  _371
REMARK  147  A    between atoms: _371  and  _372
REMARK  148  A    between atoms: _372  and  _373
REMARK  149  A    between atoms: _373  and  _374
REMARK  150  A    between atoms: _374  and  _375
REMARK  151  A    between atoms: _379  and  _381
REMARK  152  A    between atoms: _381  and  _382
REMARK  153  A    between atoms: _381  and  _384
REMARK  154  A    between atoms: _384  and  _385
REMARK  155  A    between atoms: _388  and  _390
REMARK  156  A    between atoms: _390  and  _391
REMARK  157  A    between atoms: _390  and  _393
REMARK  158  A    between atoms: _393  and  _394
REMARK  159  A    between atoms: _399  and  _400
REMARK  160  A    between atoms: _402  and  _404
REMARK  161  A    between atoms: _404  and  _405
REMARK  162  A    between atoms: _404  and  _407
REMARK  163  A    between atoms: _407  and  _408
REMARK  164  A    between atoms: _408  and  _409
REMARK  165  A    between atoms: _414  and  _416
REMARK  166  A    between atoms: _416  and  _417
REMARK  167  A    between atoms: _416  and  _419
REMARK  168  A    between atoms: _419  and  _420
REMARK  169  A    between atoms: _423  and  _425
REMARK  170  A    between atoms: _425  and  _426
REMARK  171  A    between atoms: _425  and  _428
REMARK  172  A    between atoms: _428  and  _429
REMARK  173  A    between atoms: _432  and  _434
REMARK  174  A    between atoms: _434  and  _435
REMARK  175  A    between atoms: _434  and  _437
REMARK  176  A    between atoms: _440  and  _442
REMARK  177  A    between atoms: _442  and  _443
REMARK  178  A    between atoms: _445  and  _447
REMARK  179  A    between atoms: _447  and  _448
REMARK  180  A    between atoms: _447  and  _450
REMARK  181  A    between atoms: _454  and  _455
REMARK  182  A    between atoms: _460  and  _462
REMARK  183  A    between atoms: _462  and  _463
REMARK  184  A    between atoms: _462  and  _465
REMARK  185  A    between atoms: _465  and  _466
REMARK  186  A    between atoms: _469  and  _471
REMARK  187  A    between atoms: _471  and  _472
REMARK  188  A    between atoms: _471  and  _474
REMARK  189  A    between atoms: _477  and  _479
REMARK  190  A    between atoms: _479  and  _480
REMARK  191  A    between atoms: _479  and  _482
REMARK  192  A    between atoms: _482  and  _483
REMARK  193  A    between atoms: _483  and  _484
REMARK  194  A    between atoms: _484  and  _485
REMARK  195  A    between atoms: _494  and  _496
REMARK  196  A    between atoms: _496  and  _497
REMARK  197  A    between atoms: _496  and  _499
REMARK  198  A    between atoms: _499  and  _500
REMARK  199  A    between atoms: _500  and  _501
REMARK  200  A    between atoms: _504  and  _506
REMARK  201  A    between atoms: _506  and  _507
REMARK  202  A    between atoms: _506  and  _509
REMARK  203  A    between atoms: _509  and  _510
REMARK  204  A    between atoms: _513  and  _515
REMARK  205  A    between atoms: _515  and  _516
REMARK  206  A    between atoms: _519  and  _521
REMARK  207  A    between atoms: _521  and  _522
REMARK  208  A    between atoms: _521  and  _524
REMARK  209  A    between atoms: _524  and  _525
REMARK  210  A    between atoms: _525  and  _526
REMARK  211  A    between atoms: _528  and  _530
REMARK  212  A    between atoms: _530  and  _531
REMARK  213  A    between atoms: _530  and  _533
REMARK  214  A    between atoms: _533  and  _534
REMARK  215  A    between atoms: _536  and  _538
REMARK  216  A    between atoms: _538  and  _539
REMARK  217  A    between atoms: _538  and  _541
REMARK  218  A    between atoms: _541  and  _542
REMARK  219  A    between atoms: _544  and  _546
REMARK  220  A    between atoms: _546  and  _547
REMARK  221  A    between atoms: _546  and  _549
REMARK  222  A    between atoms: _549  and  _550
REMARK  223  A    between atoms: _550  and  _551
REMARK  224  A    between atoms: _551  and  _552
REMARK  225  A    between atoms: _561  and  _563
REMARK  226  A    between atoms: _563  and  _564
REMARK  227  A    between atoms: _563  and  _566
REMARK  228  A    between atoms: _566  and  _567
REMARK  229  A    between atoms: _572  and  _574
REMARK  230  A    between atoms: _574  and  _575
REMARK  231  A    between atoms: _574  and  _577
REMARK  232  A    between atoms: _577  and  _578
REMARK  233  A    between atoms: _581  and  _583
REMARK  234  A    between atoms: _583  and  _584
REMARK  235  A    between atoms: _583  and  _586
REMARK  236  A    between atoms: _586  and  _587
REMARK                            x       y       z     vdW  Elec       q    Type
REMARK                         _______ _______ _______ _____ _____    ______ ____
ROOT
ATOM      1  CG  TYR A   1      22.223  15.764   6.168  0.00  0.00    -0.020 A 
ATOM      2  CD2 TYR A   1      21.088  16.565   6.047  0.00  0.00    -0.001 A 
ATOM      3  CE2 TYR A   1      20.113  16.293   5.080  0.00  0.00    +0.036 A 
ATOM      4  CZ  TYR A   1      20.273  15.209   4.223  0.00  0.00    +0.134 A 
ATOM      5  CE1 TYR A   1      21.398  14.399   4.318  0.00  0.00    +0.036 A 
ATOM      6  CD1 TYR A   1      22.366  14.680   5.289  0.00  0.00    -0.001 A 
ENDROOT
BRANCH   4   7
ATOM      7  OH  TYR A   1      19.310  14.942   3.270  0.00  0.00    -0.506 OA
ATOM      8  HH  TYR A   1      19.576  14.144   2.748  0.00  0.00    +0.292 HD
ENDBRANCH   4   7
BRANCH   1   9
ATOM      9  CB  TYR A   1      23.287  16.071   7.203  0.00  0.00    +0.051 C 
BRANCH   9  10
ATOM     10  CA  TYR A   1      24.483  16.855   6.631  0.00  0.00    +0.137 C 
BRANCH  10  11
ATOM     11  N   TYR A   1      25.633  16.775   7.543  0.00  0.00    -0.239 NA
ATOM     12  H   TYR A   1      25.466  16.484   8.527  0.00  0.00    +0.142 HD
ENDBRANCH  10  11
BRANCH  10  13
ATOM     13  C   TYR A   1      24.078  18.310   6.317  0.00  0.00    +0.224 C 
ATOM     14  O   TYR A   1      24.009  19.136   7.229  0.00  0.00    -0.287 OA
ENDBRANCH  10  13
ENDBRANCH   9  10
ENDBRANCH   1   9
TORSDOF 5
REMARK  Name = ../refined-set-2016/3coy/3coy_pocket.pdb
REMARK  236 active torsions:
REMARK  status: ('A' for Active; 'I' for Inactive)
REMARK    1  A    between atoms: _1  and  _3
REMARK    2  A    between atoms: _3  and  _4
REMARK    3  A    between atoms: _3  and  _6
REMARK    4  A    between atoms: _10  and  _11
REMARK    5  A    between atoms: _16  and  _18
REMARK    6  A    between atoms: _18  and  _19
REMARK    7  A    between atoms: _18  and  _21
REMARK    8  A    between atoms: _21  and  _22
REMARK    9  A    between atoms: _25  and  _27
REMARK   10  A    between atoms: _27  and  _28
REMARK   11  A    between atoms: _27  and  _30
REMARK   12  A    between atoms: _30  and  _31
REMARK   13  A    between atoms: _31  and  _32
REMARK   14  A    between atoms: _34  and  _36
REMARK   15  A    between atoms: _36  and  _37
REMARK   16  A    between atoms: _39  and  _41
REMARK   17  A    between atoms: _41  and  _42
REMARK   18  A    between atoms: _45  and  _47
REMARK   19  A    between atoms: _47  and  _48
REMARK   20  A    between atoms: _47  and  _50
REMARK   21  A    between atoms: _50  and  _51
REMARK   22  A    between atoms: _54  and  _56
REMARK   23  A    between atoms: _56  and  _57
REMARK   24  A    between atoms: _56  and  _59
REMARK   25  A    between atoms: _59  and  _60
REMARK   26  A    between atoms: _65  and  _67
REMARK   27  A    between atoms: _67  and  _68
REMARK   28  A    between atoms: _67  and  _70
REMARK   29  A    between atoms: _70  and  _71
REMARK   30  A    between atoms: _71  and  _72
REMARK   31  A    between atoms: _75  and  _77
REMARK   32  A    between atoms: _77  and  _78
REMARK   33  A    between atoms: _80  and  _82
REMARK   34  A    between atoms: _82  and  _83
REMARK   35  A    between atoms: _82  and  _85
REMARK   36  A    between atoms: _85  and  _86
REMARK   37  A    between atoms: _91  and  _93
REMARK   38  A    between atoms: _93  and  _94
REMARK   39  A    between atoms: _93  and  _96
REMARK   40  A    between atoms: _96  and  _97
REMARK   41  A    between atoms: _100  and  _102
REMARK   42  A    between atoms: _102  and  _103
REMARK   43  A    between atoms: _106  and  _108
REMARK   44  A    between atoms: _108  and  _109
REMARK   45  A    between atoms: _108  and  _111
REMARK   46  A    between atoms: _111  and  _112
REMARK   47  A    between atoms: _115  and  _117
REMARK   48  A    between atoms: _117  and  _118
REMARK   49  A    between atoms: _117  and  _120
REMARK   50  A    between atoms: _123  and  _125
REMARK   51  A    between atoms: _125  and  _126
REMARK   52  A    between atoms: _125  and  _128
REMARK   53  A    between atoms: _131  and  _133
REMARK   54  A    between atoms: _133  and  _134
REMARK   55  A    between atoms: _133  and  _136
REMARK   56  A    between atoms: _136  and  _137
REMARK   57  A    between atoms: _139  and  _141
REMARK   58  A    between atoms: _141  and  _142
REMARK   59  A    between atoms: _141  and  _144
REMARK   60  A    between atoms: _144  and  _145
REMARK   61  A    between atoms: _148  and  _150
REMARK   62  A    between atoms: _150  and  _151
REMARK   63  A    between atoms: _150  and  _153
REMARK   64  A    between atoms: _153  and  _154
REMARK   65  A    between atoms: _160  and  _162
REMARK   66  A    between atoms: _162  and  _163
REMARK   67  A    between atoms: _162  and  _165
REMARK   68  A    between atoms: _168  and  _170
REMARK   69  A    between atoms: _170  and  _171
REMARK   70  A    between atoms: _170  and  _173
REMARK   71  A    between atoms: _173  and  _174
REMARK   72  A    between atoms: _179  and  _181
REMARK   73  A    between atoms: _181  and  _182
REMARK   74  A    between atoms: _181  and  _184
REMARK   75  A    between atoms: _184  and  _185
REMARK   76  A    between atoms: _185  and  _186
REMARK   77  A    between atoms: _191  and  _193
REMARK   78  A    between atoms: _193  and  _194
REMARK   79  A    between atoms: _193  and  _196
REMARK   80  A    between atoms: _196  and  _197
REMARK   81  A    between atoms: _203  and  _205
REMARK   82  A    between atoms: _205  and  _206
REMARK   83  A    between atoms: _205  and  _208
REMARK   84  A    between atoms: _208  and  _209
REMARK   85  A    between atoms: _214  and  _215
REMARK   86  A    between atoms: _217  and  _219
REMARK   87  A    between atoms: _219  and  _220
REMARK   88  A    between atoms: _219  and  _222
REMARK   89  A    between atoms: _222  and  _223
REMARK   90  A    between atoms: _228  and  _229
REMARK   91  A    between atoms: _231  and  _233
REMARK   92  A    between atoms: _233  and  _234
REMARK   93  A    between atoms: _233  and  _236
REMARK   94  A    between atoms: _236  and  _237
REMARK   95  A    between atoms: _242  and  _244
REMARK   96  A    between atoms: _244  and  _245
REMARK   97  A    between atoms: _244  and  _247
REMARK   98  A    between atoms: _247  and  _248
REMARK   99  A    between atoms: _254  and  _256
REMARK  100  A    between atoms: _256  and  _257
REMARK  101  A    between atoms: _259  and  _261
REMARK  102  A    between atoms: _261  and  _262
REMARK  103  A    between atoms: _261  and  _264
REMARK  104  A    between atoms: _267  and  _269
REMARK  105  A    between atoms: _269  and  _270
REMARK  106  A    between atoms: _269  and  _272
REMARK  107  A    between atoms: _272  and  _273
REMARK  108  A    between atoms: _276  and  _278
REMARK  109  A    between atoms: _278  and  _279
REMARK  110  A    between atoms: _278  and  _281
REMARK  111  A    between atoms: _281  and  _282
REMARK  112  A    between atoms: _285  and  _287
REMARK  113  A    between atoms: _287  and  _288
REMARK  114  A    between atoms: _287  and  _290
REMARK  115  A    between atoms: _293  and  _295
REMARK  116  A    between atoms: _295  and  _296
REMARK  117  A    between atoms: _295  and  _298
REMARK  118  A    between atoms: _301  and  _303
REMARK  119  A    between atoms: _303  and  _304
REMARK  120  A    between atoms: _303  and  _306
REMARK  121  A    between atoms: _306  and  _307
REMARK  122  A    between atoms: _310  and  _312
REMARK  123  A    between atoms: _312  and  _313
REMARK  124  A    between atoms: _312  and  _315
REMARK  125  A    between atoms: _315  and  _316
REMARK  126  A    between atoms: _319  and  _321
REMARK  127  A    between atoms: _321  and  _322
REMARK  128  A    between atoms: _321  and  _324
REMARK  129  A    between atoms: _327  and  _329
REMARK  130  A    between atoms: _329  and  _330
REMARK  131  A    between atoms: _329  and  _332
REMARK  132  A    between atoms: _332  and  _333
REMARK  133  A    between atoms: _339  and  _341
REMARK  134  A    between atoms: _341  and  _342
REMARK  135  A    between atoms: _341  and  _344
REMARK  136  A    between atoms: _344  and  _345
REMARK  137  A    between atoms: _351  and  _353
REMARK  138  A    between atoms: _353  and  _354
REMARK  139  A    between atoms: _356  and  _358
REMARK  140  A    between atoms: _358  and  _359
REMARK  141  A    between atoms: _358  and  _361
REMARK  142  A    between atoms: _361  and  _362
REMARK  143  A    between atoms: _362  and  _363
REMARK  144  A    between atoms: _366  and  _368
REMARK  145  A    between atoms: _368  and  _369
REMARK  146  A    between atoms: _368  and  _371
REMARK  147  A    between atoms: _371  and  _372
REMARK  148  A    between atoms: _372  and  _373
REMARK  149  A    between atoms: _373  and  _374
REMARK  150  A    between atoms: _374  and  _375
REMARK  151  A    between atoms: _379  and  _381
REMARK  152  A    between atoms: _381  and  _382
REMARK  153  A    between atoms: _381  and  _384
REMARK  154  A    between atoms: _384  and  _385
REMARK  155  A    between atoms: _388  and  _390
REMARK  156  A    between atoms: _390  and  _391
REMARK  157  A    between atoms: _390  and  _393
REMARK  158  A    between atoms: _393  and  _394
REMARK  159  A    between atoms: _399  and  _400
REMARK  160  A    between atoms: _402  and  _404
REMARK  161  A    between atoms: _404  and  _405
REMARK  162  A    between atoms: _404  and  _407
REMARK  163  A    between atoms: _407  and  _408
REMARK  164  A    between atoms: _408  and  _409
REMARK  165  A    between atoms: _414  and  _416
REMARK  166  A    between atoms: _416  and  _417
REMARK  167  A    between atoms: _416  and  _419
REMARK  168  A    between atoms: _419  and  _420
REMARK  169  A    between atoms: _423  and  _425
REMARK  170  A    between atoms: _425  and  _426
REMARK  171  A    between atoms: _425  and  _428
REMARK  172  A    between atoms: _428  and  _429
REMARK  173  A    between atoms: _432  and  _434
REMARK  174  A    between atoms: _434  and  _435
REMARK  175  A    between atoms: _434  and  _437
REMARK  176  A    between atoms: _440  and  _442
REMARK  177  A    between atoms: _442  and  _443
REMARK  178  A    between atoms: _445  and  _447
REMARK  179  A    between atoms: _447  and  _448
REMARK  180  A    between atoms: _447  and  _450
REMARK  181  A    between atoms: _454  and  _455
REMARK  182  A    between atoms: _460  and  _462
REMARK  183  A    between atoms: _462  and  _463
REMARK  184  A    between atoms: _462  and  _465
REMARK  185  A    between atoms: _465  and  _466
REMARK  186  A    between atoms: _469  and  _471
REMARK  187  A    between atoms: _471  and  _472
REMARK  188  A    between atoms: _471  and  _474
REMARK  189  A    between atoms: _477  and  _479
REMARK  190  A    between atoms: _479  and  _480
REMARK  191  A    between atoms: _479  and  _482
REMARK  192  A    between atoms: _482  and  _483
REMARK  193  A    between atoms: _483  and  _484
REMARK  194  A    between atoms: _484  and  _485
REMARK  195  A    between atoms: _494  and  _496
REMARK  196  A    between atoms: _496  and  _497
REMARK  197  A    between atoms: _496  and  _499
REMARK  198  A    between atoms: _499  and  _500
REMARK  199  A    between atoms: _500  and  _501
REMARK  200  A    between atoms: _504  and  _506
REMARK  201  A    between atoms: _506  and  _507
REMARK  202  A    between atoms: _506  and  _509
REMARK  203  A    between atoms: _509  and  _510
REMARK  204  A    between atoms: _513  and  _515
REMARK  205  A    between atoms: _515  and  _516
REMARK  206  A    between atoms: _519  and  _521
REMARK  207  A    between atoms: _521  and  _522
REMARK  208  A    between atoms: _521  and  _524
REMARK  209  A    between atoms: _524  and  _525
REMARK  210  A    between atoms: _525  and  _526
REMARK  211  A    between atoms: _528  and  _530
REMARK  212  A    between atoms: _530  and  _531
REMARK  213  A    between atoms: _530  and  _533
REMARK  214  A    between atoms: _533  and  _534
REMARK  215  A    between atoms: _536  and  _538
REMARK  216  A    between atoms: _538  and  _539
REMARK  217  A    between atoms: _538  and  _541
REMARK  218  A    between atoms: _541  and  _542
REMARK  219  A    between atoms: _544  and  _546
REMARK  220  A    between atoms: _546  and  _547
REMARK  221  A    between atoms: _546  and  _549
REMARK  222  A    between atoms: _549  and  _550
REMARK  223  A    between atoms: _550  and  _551
REMARK  224  A    between atoms: _551  and  _552
REMARK  225  A    between atoms: _561  and  _563
REMARK  226  A    between atoms: _563  and  _564
REMARK  227  A    between atoms: _563  and  _566
REMARK  228  A    between atoms: _566  and  _567
REMARK  229  A    between atoms: _572  and  _574
REMARK  230  A    between atoms: _574  and  _575
REMARK  231  A    between atoms: _574  and  _577
REMARK  232  A    between atoms: _577  and  _578
REMARK  233  A    between atoms: _581  and  _583
REMARK  234  A    between atoms: _583  and  _584
REMARK  235  A    between atoms: _583  and  _586
REMARK  236  A    between atoms: _586  and  _587
REMARK                            x       y       z     vdW  Elec       q    Type
REMARK                         _______ _______ _______ _____ _____    ______ ____
ROOT
ATOM      1  CG  TYR A   1      16.505  11.400  20.606  0.00  0.00    -0.020 A 
ATOM      2  CD2 TYR A   1      16.298   9.999  20.627  0.00  0.00    -0.001 A 
ATOM      3  CE2 TYR A   1      16.077   9.280  19.440  0.00  0.00    +0.036 A 
ATOM      4  CZ  TYR A   1      16.066   9.944  18.230  0.00  0.00    +0.134 A 
ATOM      5  CE1 TYR A   1      16.254  11.329  18.187  0.00  0.00    +0.036 A 
ATOM      6  CD1 TYR A   1      16.466  12.037  19.371  0.00  0.00    -0.001 A 
ENDROOT
BRANCH   4   7
ATOM      7  OH  TYR A   1      15.826   9.227  17.073  0.00  0.00    -0.506 OA
ATOM      8  HH  TYR A   1      16.589   9.339  16.452  0.00  0.00    +0.292 HD
ENDBRANCH   4   7
BRANCH   1   9
ATOM      9  CB  TYR A   1      16.718  12.197  21.909  0.00  0.00    +0.051 C 
BRANCH   9  10
ATOM     10  CA  TYR A   1      15.394  12.437  22.677  0.00  0.00    +0.137 C 
BRANCH  10  11
ATOM     11  N   TYR A   1      14.473  13.282  21.901  0.00  0.00    -0.239 NA
ATOM     12  H   TYR A   1      14.629  14.310  21.886  0.00  0.00    +0.142 HD
ENDBRANCH  10  11
BRANCH  10  13
ATOM     13  C   TYR A   1      15.641  12.996  24.087  0.00  0.00    +0.224 C 
ATOM     14  O   TYR A   1      16.803  13.211  24.470  0.00  0.00    -0.287 OA
ENDBRANCH  10  13
ENDBRANCH   9  10
ENDBRANCH   1   9
TORSDOF 5
REMARK  Name = ../refined-set-2016/3coy/3coy_pocket.pdb
REMARK  236 active torsions:
REMARK  status: ('A' for Active; 'I' for Inactive)
REMARK    1  A    between atoms: _1  and  _3
REMARK    2  A    between atoms: _3  and  _4
REMARK    3  A    between atoms: _3  and  _6
REMARK    4  A    between atoms: _10  and  _11
REMARK    5  A    between atoms: _16  and  _18
REMARK    6  A    between atoms: _18  and  _19
REMARK    7  A    between atoms: _18  and  _21
REMARK    8  A    between atoms: _21  and  _22
REMARK    9  A    between atoms: _25  and  _27
REMARK   10  A    between atoms: _27  and  _28
REMARK   11  A    between atoms: _27  and  _30
REMARK   12  A    between atoms: _30  and  _31
REMARK   13  A    between atoms: _31  and  _32
REMARK   14  A    between atoms: _34  and  _36
REMARK   15  A    between atoms: _36  and  _37
REMARK   16  A    between atoms: _39  and  _41
REMARK   17  A    between atoms: _41  and  _42
REMARK   18  A    between atoms: _45  and  _47
REMARK   19  A    between atoms: _47  and  _48
REMARK   20  A    between atoms: _47  and  _50
REMARK   21  A    between atoms: _50  and  _51
REMARK   22  A    between atoms: _54  and  _56
REMARK   23  A    between atoms: _56  and  _57
REMARK   24  A    between atoms: _56  and  _59
REMARK   25  A    between atoms: _59  and  _60
REMARK   26  A    between atoms: _65  and  _67
REMARK   27  A    between atoms: _67  and  _68
REMARK   28  A    between atoms: _67  and  _70
REMARK   29  A    between atoms: _70  and  _71
REMARK   30  A    between atoms: _71  and  _72
REMARK   31  A    between atoms: _75  and  _77
REMARK   32  A    between atoms: _77  and  _78
REMARK   33  A    between atoms: _80  and  _82
REMARK   34  A    between atoms: _82  and  _83
REMARK   35  A    between atoms: _82  and  _85
REMARK   36  A    between atoms: _85  and  _86
REMARK   37  A    between atoms: _91  and  _93
REMARK   38  A    between atoms: _93  and  _94
REMARK   39  A    between atoms: _93  and  _96
REMARK   40  A    between atoms: _96  and  _97
REMARK   41  A    between atoms: _100  and  _102
REMARK   42  A    between atoms: _102  and  _103
REMARK   43  A    between atoms: _106  and  _108
REMARK   44  A    between atoms: _108  and  _109
REMARK   45  A    between atoms: _108  and  _111
REMARK   46  A    between atoms: _111  and  _112
REMARK   47  A    between atoms: _115  and  _117
REMARK   48  A    between atoms: _117  and  _118
REMARK   49  A    between atoms: _117  and  _120
REMARK   50  A    between atoms: _123  and  _125
REMARK   51  A    between atoms: _125  and  _126
REMARK   52  A    between atoms: _125  and  _128
REMARK   53  A    between atoms: _131  and  _133
REMARK   54  A    between atoms: _133  and  _134
REMARK   55  A    between atoms: _133  and  _136
REMARK   56  A    between atoms: _136  and  _137
REMARK   57  A    between atoms: _139  and  _141
REMARK   58  A    between atoms: _141  and  _142
REMARK   59  A    between atoms: _141  and  _144
REMARK   60  A    between atoms: _144  and  _145
REMARK   61  A    between atoms: _148  and  _150
REMARK   62  A    between atoms: _150  and  _151
REMARK   63  A    between atoms: _150  and  _153
REMARK   64  A    between atoms: _153  and  _154
REMARK   65  A    between atoms: _160  and  _162
REMARK   66  A    between atoms: _162  and  _163
REMARK   67  A    between atoms: _162  and  _165
REMARK   68  A    between atoms: _168  and  _170
REMARK   69  A    between atoms: _170  and  _171
REMARK   70  A    between atoms: _170  and  _173
REMARK   71  A    between atoms: _173  and  _174
REMARK   72  A    between atoms: _179  and  _181
REMARK   73  A    between atoms: _181  and  _182
REMARK   74  A    between atoms: _181  and  _184
REMARK   75  A    between atoms: _184  and  _185
REMARK   76  A    between atoms: _185  and  _186
REMARK   77  A    between atoms: _191  and  _193
REMARK   78  A    between atoms: _193  and  _194
REMARK   79  A    between atoms: _193  and  _196
REMARK   80  A    between atoms: _196  and  _197
REMARK   81  A    between atoms: _203  and  _205
REMARK   82  A    between atoms: _205  and  _206
REMARK   83  A    between atoms: _205  and  _208
REMARK   84  A    between atoms: _208  and  _209
REMARK   85  A    between atoms: _214  and  _215
REMARK   86  A    between atoms: _217  and  _219
REMARK   87  A    between atoms: _219  and  _220
REMARK   88  A    between atoms: _219  and  _222
REMARK   89  A    between atoms: _222  and  _223
REMARK   90  A    between atoms: _228  and  _229
REMARK   91  A    between atoms: _231  and  _233
REMARK   92  A    between atoms: _233  and  _234
REMARK   93  A    between atoms: _233  and  _236
REMARK   94  A    between atoms: _236  and  _237
REMARK   95  A    between atoms: _242  and  _244
REMARK   96  A    between atoms: _244  and  _245
REMARK   97  A    between atoms: _244  and  _247
REMARK   98  A    between atoms: _247  and  _248
REMARK   99  A    between atoms: _254  and  _256
REMARK  100  A    between atoms: _256  and  _257
REMARK  101  A    between atoms: _259  and  _261
REMARK  102  A    between atoms: _261  and  _262
REMARK  103  A    between atoms: _261  and  _264
REMARK  104  A    between atoms: _267  and  _269
REMARK  105  A    between atoms: _269  and  _270
REMARK  106  A    between atoms: _269  and  _272
REMARK  107  A    between atoms: _272  and  _273
REMARK  108  A    between atoms: _276  and  _278
REMARK  109  A    between atoms: _278  and  _279
REMARK  110  A    between atoms: _278  and  _281
REMARK  111  A    between atoms: _281  and  _282
REMARK  112  A    between atoms: _285  and  _287
REMARK  113  A    between atoms: _287  and  _288
REMARK  114  A    between atoms: _287  and  _290
REMARK  115  A    between atoms: _293  and  _295
REMARK  116  A    between atoms: _295  and  _296
REMARK  117  A    between atoms: _295  and  _298
REMARK  118  A    between atoms: _301  and  _303
REMARK  119  A    between atoms: _303  and  _304
REMARK  120  A    between atoms: _303  and  _306
REMARK  121  A    between atoms: _306  and  _307
REMARK  122  A    between atoms: _310  and  _312
REMARK  123  A    between atoms: _312  and  _313
REMARK  124  A    between atoms: _312  and  _315
REMARK  125  A    between atoms: _315  and  _316
REMARK  126  A    between atoms: _319  and  _321
REMARK  127  A    between atoms: _321  and  _322
REMARK  128  A    between atoms: _321  and  _324
REMARK  129  A    between atoms: _327  and  _329
REMARK  130  A    between atoms: _329  and  _330
REMARK  131  A    between atoms: _329  and  _332
REMARK  132  A    between atoms: _332  and  _333
REMARK  133  A    between atoms: _339  and  _341
REMARK  134  A    between atoms: _341  and  _342
REMARK  135  A    between atoms: _341  and  _344
REMARK  136  A    between atoms: _344  and  _345
REMARK  137  A    between atoms: _351  and  _353
REMARK  138  A    between atoms: _353  and  _354
REMARK  139  A    between atoms: _356  and  _358
REMARK  140  A    between atoms: _358  and  _359
REMARK  141  A    between atoms: _358  and  _361
REMARK  142  A    between atoms: _361  and  _362
REMARK  143  A    between atoms: _362  and  _363
REMARK  144  A    between atoms: _366  and  _368
REMARK  145  A    between atoms: _368  and  _369
REMARK  146  A    between atoms: _368  and  _371
REMARK  147  A    between atoms: _371  and  _372
REMARK  148  A    between atoms: _372  and  _373
REMARK  149  A    between atoms: _373  and  _374
REMARK  150  A    between atoms: _374  and  _375
REMARK  151  A    between atoms: _379  and  _381
REMARK  152  A    between atoms: _381  and  _382
REMARK  153  A    between atoms: _381  and  _384
REMARK  154  A    between atoms: _384  and  _385
REMARK  155  A    between atoms: _388  and  _390
REMARK  156  A    between atoms: _390  and  _391
REMARK  157  A    between atoms: _390  and  _393
REMARK  158  A    between atoms: _393  and  _394
REMARK  159  A    between atoms: _399  and  _400
REMARK  160  A    between atoms: _402  and  _404
REMARK  161  A    between atoms: _404  and  _405
REMARK  162  A    between atoms: _404  and  _407
REMARK  163  A    between atoms: _407  and  _408
REMARK  164  A    between atoms: _408  and  _409
REMARK  165  A    between atoms: _414  and  _416
REMARK  166  A    between atoms: _416  and  _417
REMARK  167  A    between atoms: _416  and  _419
REMARK  168  A    between atoms: _419  and  _420
REMARK  169  A    between atoms: _423  and  _425
REMARK  170  A    between atoms: _425  and  _426
REMARK  171  A    between atoms: _425  and  _428
REMARK  172  A    between atoms: _428  and  _429
REMARK  173  A    between atoms: _432  and  _434
REMARK  174  A    between atoms: _434  and  _435
REMARK  175  A    between atoms: _434  and  _437
REMARK  176  A    between atoms: _440  and  _442
REMARK  177  A    between atoms: _442  and  _443
REMARK  178  A    between atoms: _445  and  _447
REMARK  179  A    between atoms: _447  and  _448
REMARK  180  A    between atoms: _447  and  _450
REMARK  181  A    between atoms: _454  and  _455
REMARK  182  A    between atoms: _460  and  _462
REMARK  183  A    between atoms: _462  and  _463
REMARK  184  A    between atoms: _462  and  _465
REMARK  185  A    between atoms: _465  and  _466
REMARK  186  A    between atoms: _469  and  _471
REMARK  187  A    between atoms: _471  and  _472
REMARK  188  A    between atoms: _471  and  _474
REMARK  189  A    between atoms: _477  and  _479
REMARK  190  A    between atoms: _479  and  _480
REMARK  191  A    between atoms: _479  and  _482
REMARK  192  A    between atoms: _482  and  _483
REMARK  193  A    between atoms: _483  and  _484
REMARK  194  A    between atoms: _484  and  _485
REMARK  195  A    between atoms: _494  and  _496
REMARK  196  A    between atoms: _496  and  _497
REMARK  197  A    between atoms: _496  and  _499
REMARK  198  A    between atoms: _499  and  _500
REMARK  199  A    between atoms: _500  and  _501
REMARK  200  A    between atoms: _504  and  _506
REMARK  201  A    between atoms: _506  and  _507
REMARK  202  A    between atoms: _506  and  _509
REMARK  203  A    between atoms: _509  and  _510
REMARK  204  A    between atoms: _513  and  _515
REMARK  205  A    between atoms: _515  and  _516
REMARK  206  A    between atoms: _519  and  _521
REMARK  207  A    between atoms: _521  and  _522
REMARK  208  A    between atoms: _521  and  _524
REMARK  209  A    between atoms: _524  and  _525
REMARK  210  A    between atoms: _525  and  _526
REMARK  211  A    between atoms: _528  and  _530
REMARK  212  A    between atoms: _530  and  _531
REMARK  213  A    between atoms: _530  and  _533
REMARK  214  A    between atoms: _533  and  _534
REMARK  215  A    between atoms: _536  and  _538
REMARK  216  A    between atoms: _538  and  _539
REMARK  217  A    between atoms: _538  and  _541
REMARK  218  A    between atoms: _541  and  _542
REMARK  219  A    between atoms: _544  and  _546
REMARK  220  A    between atoms: _546  and  _547
REMARK  221  A    between atoms: _546  and  _549
REMARK  222  A    between atoms: _549  and  _550
REMARK  223  A    between atoms: _550  and  _551
REMARK  224  A    between atoms: _551  and  _552
REMARK  225  A    between atoms: _561  and  _563
REMARK  226  A    between atoms: _563  and  _564
REMARK  227  A    between atoms: _563  and  _566
REMARK  228  A    between atoms: _566  and  _567
REMARK  229  A    between atoms: _572  and  _574
REMARK  230  A    between atoms: _574  and  _575
REMARK  231  A    between atoms: _574  and  _577
REMARK  232  A    between atoms: _577  and  _578
REMARK  233  A    between atoms: _581  and  _583
REMARK  234  A    between atoms: _583  and  _584
REMARK  235  A    between atoms: _583  and  _586
REMARK  236  A    between atoms: _586  and  _587
REMARK                            x       y       z     vdW  Elec       q    Type
REMARK                         _______ _______ _______ _____ _____    ______ ____
ROOT
ATOM      1  C   HIS A   1      21.041   2.718  11.170  0.00  0.00    +0.239 C 
ATOM      2  O   HIS A   1      20.250   3.653  11.366  0.00  0.00    -0.274 OA
ATOM      3  N   PHE A   2      20.641   1.484  10.857  0.00  0.00    -0.298 N 
ATOM      4  H   PHE A   2      21.333   0.714  10.762  0.00  0.00    +0.150 HD
ENDROOT
BRANCH   1   5
ATOM      5  CA  HIS A   1      22.551   2.955  11.218  0.00  0.00    +0.151 C 
BRANCH   5   6
ATOM      6  N   HIS A   1      23.272   2.005  12.064  0.00  0.00    -0.238 NA
ATOM      7  H   HIS A   1      24.052   1.454  11.653  0.00  0.00    +0.142 HD
ENDBRANCH   5   6
BRANCH   5   8
ATOM      8  CB  HIS A   1      23.066   2.928   9.765  0.00  0.00    +0.074 C 
BRANCH   8   9
ATOM      9  CG  HIS A   1      22.257   3.788   8.843  0.00  0.00    +0.082 A 
ATOM     10  ND1 HIS A   1      22.223   5.163   8.951  0.00  0.00    -0.227 NA
ATOM     11  CE1 HIS A   1      21.420   5.657   8.027  0.00  0.00    +0.199 A 
ATOM     12  NE2 HIS A   1      20.928   4.652   7.326  0.00  0.00    -0.221 NA
ATOM     13  CD2 HIS A   1      21.424   3.471   7.823  0.00  0.00    +0.115 A 
ENDBRANCH   8   9
ENDBRANCH   5   8
ENDBRANCH   1   5
BRANCH   3  14
ATOM     14  CA  PHE A   2      19.219   1.230  10.650  0.00  0.00    +0.141 C 
BRANCH  14  15
ATOM     15  C   PHE A   2      18.414   1.216  11.949  0.00  0.00    +0.227 C 
ATOM     16  O   PHE A   2      17.215   1.554  11.931  0.00  0.00    -0.286 OA
ENDBRANCH  14  15
BRANCH  14  17
ATOM     17  CB  PHE A   2      18.958   0.005   9.759  0.00  0.00    +0.054 C 
BRANCH  17  18
ATOM     18  CG  PHE A   2      19.256   0.274   8.304  0.00  0.00    -0.020 A 
ATOM     19  CD2 PHE A   2      20.309  -0.390   7.652  0.00  0.00    -0.004 A 
ATOM     20  CE2 PHE A   2      20.613  -0.098   6.320  0.00  0.00    -0.000 A 
ATOM     21  CZ  PHE A   2      19.866   0.842   5.626  0.00  0.00    -0.000 A 
ATOM     22  CE1 PHE A   2      18.824   1.514   6.272  0.00  0.00    -0.000 A 
ATOM     23  CD1 PHE A   2      18.538   1.231   7.605  0.00  0.00    -0.004 A 
ENDBRANCH  17  18
ENDBRANCH  14  17
ENDBRANCH   3  14
TORSDOF 8
REMARK  Name = ../refined-set-2016/3coy/3coy_pocket.pdb
REMARK  236 active torsions:
REMARK  status: ('A' for Active; 'I' for Inactive)
REMARK    1  A    between atoms: _1  and  _3
REMARK    2  A    between atoms: _3  and  _4
REMARK    3  A    between atoms: _3  and  _6
REMARK    4  A    between atoms: _10  and  _11
REMARK    5  A    between atoms: _16  and  _18
REMARK    6  A    between atoms: _18  and  _19
REMARK    7  A    between atoms: _18  and  _21
REMARK    8  A    between atoms: _21  and  _22
REMARK    9  A    between atoms: _25  and  _27
REMARK   10  A    between atoms: _27  and  _28
REMARK   11  A    between atoms: _27  and  _30
REMARK   12  A    between atoms: _30  and  _31
REMARK   13  A    between atoms: _31  and  _32
REMARK   14  A    between atoms: _34  and  _36
REMARK   15  A    between atoms: _36  and  _37
REMARK   16  A    between atoms: _39  and  _41
REMARK   17  A    between atoms: _41  and  _42
REMARK   18  A    between atoms: _45  and  _47
REMARK   19  A    between atoms: _47  and  _48
REMARK   20  A    between atoms: _47  and  _50
REMARK   21  A    between atoms: _50  and  _51
REMARK   22  A    between atoms: _54  and  _56
REMARK   23  A    between atoms: _56  and  _57
REMARK   24  A    between atoms: _56  and  _59
REMARK   25  A    between atoms: _59  and  _60
REMARK   26  A    between atoms: _65  and  _67
REMARK   27  A    between atoms: _67  and  _68
REMARK   28  A    between atoms: _67  and  _70
REMARK   29  A    between atoms: _70  and  _71
REMARK   30  A    between atoms: _71  and  _72
REMARK   31  A    between atoms: _75  and  _77
REMARK   32  A    between atoms: _77  and  _78
REMARK   33  A    between atoms: _80  and  _82
REMARK   34  A    between atoms: _82  and  _83
REMARK   35  A    between atoms: _82  and  _85
REMARK   36  A    between atoms: _85  and  _86
REMARK   37  A    between atoms: _91  and  _93
REMARK   38  A    between atoms: _93  and  _94
REMARK   39  A    between atoms: _93  and  _96
REMARK   40  A    between atoms: _96  and  _97
REMARK   41  A    between atoms: _100  and  _102
REMARK   42  A    between atoms: _102  and  _103
REMARK   43  A    between atoms: _106  and  _108
REMARK   44  A    between atoms: _108  and  _109
REMARK   45  A    between atoms: _108  and  _111
REMARK   46  A    between atoms: _111  and  _112
REMARK   47  A    between atoms: _115  and  _117
REMARK   48  A    between atoms: _117  and  _118
REMARK   49  A    between atoms: _117  and  _120
REMARK   50  A    between atoms: _123  and  _125
REMARK   51  A    between atoms: _125  and  _126
REMARK   52  A    between atoms: _125  and  _128
REMARK   53  A    between atoms: _131  and  _133
REMARK   54  A    between atoms: _133  and  _134
REMARK   55  A    between atoms: _133  and  _136
REMARK   56  A    between atoms: _136  and  _137
REMARK   57  A    between atoms: _139  and  _141
REMARK   58  A    between atoms: _141  and  _142
REMARK   59  A    between atoms: _141  and  _144
REMARK   60  A    between atoms: _144  and  _145
REMARK   61  A    between atoms: _148  and  _150
REMARK   62  A    between atoms: _150  and  _151
REMARK   63  A    between atoms: _150  and  _153
REMARK   64  A    between atoms: _153  and  _154
REMARK   65  A    between atoms: _160  and  _162
REMARK   66  A    between atoms: _162  and  _163
REMARK   67  A    between atoms: _162  and  _165
REMARK   68  A    between atoms: _168  and  _170
REMARK   69  A    between atoms: _170  and  _171
REMARK   70  A    between atoms: _170  and  _173
REMARK   71  A    between atoms: _173  and  _174
REMARK   72  A    between atoms: _179  and  _181
REMARK   73  A    between atoms: _181  and  _182
REMARK   74  A    between atoms: _181  and  _184
REMARK   75  A    between atoms: _184  and  _185
REMARK   76  A    between atoms: _185  and  _186
REMARK   77  A    between atoms: _191  and  _193
REMARK   78  A    between atoms: _193  and  _194
REMARK   79  A    between atoms: _193  and  _196
REMARK   80  A    between atoms: _196  and  _197
REMARK   81  A    between atoms: _203  and  _205
REMARK   82  A    between atoms: _205  and  _206
REMARK   83  A    between atoms: _205  and  _208
REMARK   84  A    between atoms: _208  and  _209
REMARK   85  A    between atoms: _214  and  _215
REMARK   86  A    between atoms: _217  and  _219
REMARK   87  A    between atoms: _219  and  _220
REMARK   88  A    between atoms: _219  and  _222
REMARK   89  A    between atoms: _222  and  _223
REMARK   90  A    between atoms: _228  and  _229
REMARK   91  A    between atoms: _231  and  _233
REMARK   92  A    between atoms: _233  and  _234
REMARK   93  A    between atoms: _233  and  _236
REMARK   94  A    between atoms: _236  and  _237
REMARK   95  A    between atoms: _242  and  _244
REMARK   96  A    between atoms: _244  and  _245
REMARK   97  A    between atoms: _244  and  _247
REMARK   98  A    between atoms: _247  and  _248
REMARK   99  A    between atoms: _254  and  _256
REMARK  100  A    between atoms: _256  and  _257
REMARK  101  A    between atoms: _259  and  _261
REMARK  102  A    between atoms: _261  and  _262
REMARK  103  A    between atoms: _261  and  _264
REMARK  104  A    between atoms: _267  and  _269
REMARK  105  A    between atoms: _269  and  _270
REMARK  106  A    between atoms: _269  and  _272
REMARK  107  A    between atoms: _272  and  _273
REMARK  108  A    between atoms: _276  and  _278
REMARK  109  A    between atoms: _278  and  _279
REMARK  110  A    between atoms: _278  and  _281
REMARK  111  A    between atoms: _281  and  _282
REMARK  112  A    between atoms: _285  and  _287
REMARK  113  A    between atoms: _287  and  _288
REMARK  114  A    between atoms: _287  and  _290
REMARK  115  A    between atoms: _293  and  _295
REMARK  116  A    between atoms: _295  and  _296
REMARK  117  A    between atoms: _295  and  _298
REMARK  118  A    between atoms: _301  and  _303
REMARK  119  A    between atoms: _303  and  _304
REMARK  120  A    between atoms: _303  and  _306
REMARK  121  A    between atoms: _306  and  _307
REMARK  122  A    between atoms: _310  and  _312
REMARK  123  A    between atoms: _312  and  _313
REMARK  124  A    between atoms: _312  and  _315
REMARK  125  A    between atoms: _315  and  _316
REMARK  126  A    between atoms: _319  and  _321
REMARK  127  A    between atoms: _321  and  _322
REMARK  128  A    between atoms: _321  and  _324
REMARK  129  A    between atoms: _327  and  _329
REMARK  130  A    between atoms: _329  and  _330
REMARK  131  A    between atoms: _329  and  _332
REMARK  132  A    between atoms: _332  and  _333
REMARK  133  A    between atoms: _339  and  _341
REMARK  134  A    between atoms: _341  and  _342
REMARK  135  A    between atoms: _341  and  _344
REMARK  136  A    between atoms: _344  and  _345
REMARK  137  A    between atoms: _351  and  _353
REMARK  138  A    between atoms: _353  and  _354
REMARK  139  A    between atoms: _356  and  _358
REMARK  140  A    between atoms: _358  and  _359
REMARK  141  A    between atoms: _358  and  _361
REMARK  142  A    between atoms: _361  and  _362
REMARK  143  A    between atoms: _362  and  _363
REMARK  144  A    between atoms: _366  and  _368
REMARK  145  A    between atoms: _368  and  _369
REMARK  146  A    between atoms: _368  and  _371
REMARK  147  A    between atoms: _371  and  _372
REMARK  148  A    between atoms: _372  and  _373
REMARK  149  A    between atoms: _373  and  _374
REMARK  150  A    between atoms: _374  and  _375
REMARK  151  A    between atoms: _379  and  _381
REMARK  152  A    between atoms: _381  and  _382
REMARK  153  A    between atoms: _381  and  _384
REMARK  154  A    between atoms: _384  and  _385
REMARK  155  A    between atoms: _388  and  _390
REMARK  156  A    between atoms: _390  and  _391
REMARK  157  A    between atoms: _390  and  _393
REMARK  158  A    between atoms: _393  and  _394
REMARK  159  A    between atoms: _399  and  _400
REMARK  160  A    between atoms: _402  and  _404
REMARK  161  A    between atoms: _404  and  _405
REMARK  162  A    between atoms: _404  and  _407
REMARK  163  A    between atoms: _407  and  _408
REMARK  164  A    between atoms: _408  and  _409
REMARK  165  A    between atoms: _414  and  _416
REMARK  166  A    between atoms: _416  and  _417
REMARK  167  A    between atoms: _416  and  _419
REMARK  168  A    between atoms: _419  and  _420
REMARK  169  A    between atoms: _423  and  _425
REMARK  170  A    between atoms: _425  and  _426
REMARK  171  A    between atoms: _425  and  _428
REMARK  172  A    between atoms: _428  and  _429
REMARK  173  A    between atoms: _432  and  _434
REMARK  174  A    between atoms: _434  and  _435
REMARK  175  A    between atoms: _434  and  _437
REMARK  176  A    between atoms: _440  and  _442
REMARK  177  A    between atoms: _442  and  _443
REMARK  178  A    between atoms: _445  and  _447
REMARK  179  A    between atoms: _447  and  _448
REMARK  180  A    between atoms: _447  and  _450
REMARK  181  A    between atoms: _454  and  _455
REMARK  182  A    between atoms: _460  and  _462
REMARK  183  A    between atoms: _462  and  _463
REMARK  184  A    between atoms: _462  and  _465
REMARK  185  A    between atoms: _465  and  _466
REMARK  186  A    between atoms: _469  and  _471
REMARK  187  A    between atoms: _471  and  _472
REMARK  188  A    between atoms: _471  and  _474
REMARK  189  A    between atoms: _477  and  _479
REMARK  190  A    between atoms: _479  and  _480
REMARK  191  A    between atoms: _479  and  _482
REMARK  192  A    between atoms: _482  and  _483
REMARK  193  A    between atoms: _483  and  _484
REMARK  194  A    between atoms: _484  and  _485
REMARK  195  A    between atoms: _494  and  _496
REMARK  196  A    between atoms: _496  and  _497
REMARK  197  A    between atoms: _496  and  _499
REMARK  198  A    between atoms: _499  and  _500
REMARK  199  A    between atoms: _500  and  _501
REMARK  200  A    between atoms: _504  and  _506
REMARK  201  A    between atoms: _506  and  _507
REMARK  202  A    between atoms: _506  and  _509
REMARK  203  A    between atoms: _509  and  _510
REMARK  204  A    between atoms: _513  and  _515
REMARK  205  A    between atoms: _515  and  _516
REMARK  206  A    between atoms: _519  and  _521
REMARK  207  A    between atoms: _521  and  _522
REMARK  208  A    between atoms: _521  and  _524
REMARK  209  A    between atoms: _524  and  _525
REMARK  210  A    between atoms: _525  and  _526
REMARK  211  A    between atoms: _528  and  _530
REMARK  212  A    between atoms: _530  and  _531
REMARK  213  A    between atoms: _530  and  _533
REMARK  214  A    between atoms: _533  and  _534
REMARK  215  A    between atoms: _536  and  _538
REMARK  216  A    between atoms: _538  and  _539
REMARK  217  A    between atoms: _538  and  _541
REMARK  218  A    between atoms: _541  and  _542
REMARK  219  A    between atoms: _544  and  _546
REMARK  220  A    between atoms: _546  and  _547
REMARK  221  A    between atoms: _546  and  _549
REMARK  222  A    between atoms: _549  and  _550
REMARK  223  A    between atoms: _550  and  _551
REMARK  224  A    between atoms: _551  and  _552
REMARK  225  A    between atoms: _561  and  _563
REMARK  226  A    between atoms: _563  and  _564
REMARK  227  A    between atoms: _563  and  _566
REMARK  228  A    between atoms: _566  and  _567
REMARK  229  A    between atoms: _572  and  _574
REMARK  230  A    between atoms: _574  and  _575
REMARK  231  A    between atoms: _574  and  _577
REMARK  232  A    between atoms: _577  and  _578
REMARK  233  A    between atoms: _581  and  _583
REMARK  234  A    between atoms: _583  and  _584
REMARK  235  A    between atoms: _583  and  _586
REMARK  236  A    between atoms: _586  and  _587
REMARK                            x       y       z     vdW  Elec       q    Type
REMARK                         _______ _______ _______ _____ _____    ______ ____
ROOT
ATOM      1  CA  THR A   4      13.738   4.110  15.993  0.00  0.00    +0.176 C 
ENDROOT
BRANCH   1   3
ATOM      2  C   LEU A   3      13.182   3.107  13.856  0.00  0.00    +0.241 C 
ATOM      3  N   THR A   4      14.104   3.483  14.732  0.00  0.00    -0.295 N 
ATOM      4  H   THR A   4      15.109   3.327  14.513  0.00  0.00    +0.150 HD
ATOM      5  O   LEU A   3      11.980   3.245  14.058  0.00  0.00    -0.273 OA
BRANCH   2   6
ATOM      6  CA  LEU A   3      13.694   2.498  12.547  0.00  0.00    +0.149 C 
BRANCH   6   8
ATOM      7  C   VAL A   2      14.994   4.417  11.787  0.00  0.00    +0.241 C 
ATOM      8  N   LEU A   3      14.971   3.129  12.151  0.00  0.00    -0.297 N 
ATOM      9  H   LEU A   3      15.850   2.573  12.155  0.00  0.00    +0.150 HD
ATOM     10  O   VAL A   2      14.003   5.160  11.875  0.00  0.00    -0.273 OA
BRANCH   7  11
ATOM     11  CA  VAL A   2      16.313   4.969  11.268  0.00  0.00    +0.148 C 
BRANCH  11  14
ATOM     12  C   GLY A   1      17.385   5.192  13.443  0.00  0.00    +0.240 C 
ATOM     13  O   GLY A   1      16.478   5.925  13.895  0.00  0.00    -0.274 OA
ATOM     14  N   VAL A   2      17.389   4.710  12.209  0.00  0.00    -0.297 N 
ATOM     15  H   VAL A   2      18.192   4.125  11.903  0.00  0.00    +0.150 HD
BRANCH  12  16
ATOM     16  CA  GLY A   1      18.582   4.802  14.294  0.00  0.00    +0.169 C 
BRANCH  16  17
ATOM     17  N   GLY A   1      18.883   3.364  14.246  0.00  0.00    -0.236 NA
ATOM     18  H   GLY A   1      19.816   3.071  13.893  0.00  0.00    +0.142 HD
ENDBRANCH  16  17
ENDBRANCH  12  16
ENDBRANCH  11  14
BRANCH  11  19
ATOM     19  CB  VAL A   2      16.658   4.366   9.886  0.00  0.00    +0.027 C 
ATOM     20  CG2 VAL A   2      17.874   5.107   9.293  0.00  0.00    +0.002 C 
ATOM     21  CG1 VAL A   2      15.462   4.424   8.945  0.00  0.00    +0.002 C 
ENDBRANCH  11  19
ENDBRANCH   7  11
ENDBRANCH   6   8
BRANCH   6  22
ATOM     22  CB  LEU A   3      13.815   0.983  12.695  0.00  0.00    +0.029 C 
BRANCH  22  23
ATOM     23  CG  LEU A   3      14.244   0.094  11.510  0.00  0.00    +0.002 C 
ATOM     24  CD2 LEU A   3      13.591  -1.290  11.540  0.00  0.00    +0.000 C 
ATOM     25  CD1 LEU A   3      14.043   0.750  10.175  0.00  0.00    +0.000 C 
ENDBRANCH  22  23
ENDBRANCH   6  22
ENDBRANCH   2   6
ENDBRANCH   1   3
BRANCH   1  26
ATOM     26  C   THR A   4      13.071   5.475  15.691  0.00  0.00    +0.243 C 
ATOM     27  O   THR A   4      11.979   5.743  16.175  0.00  0.00    -0.273 OA
ATOM     28  N   VAL A   5      13.724   6.342  14.921  0.00  0.00    -0.297 N 
ATOM     29  H   VAL A   5      14.652   6.100  14.518  0.00  0.00    +0.150 HD
BRANCH  28  30
ATOM     30  CA  VAL A   5      13.112   7.639  14.654  0.00  0.00    +0.149 C 
BRANCH  30  31
ATOM     31  C   VAL A   5      11.801   7.515  13.848  0.00  0.00    +0.241 C 
ATOM     32  O   VAL A   5      10.846   8.256  14.105  0.00  0.00    -0.273 OA
ATOM     33  N   VAL A   6      11.719   6.547  12.930  0.00  0.00    -0.297 N 
ATOM     34  H   VAL A   6      12.502   5.874  12.808  0.00  0.00    +0.150 HD
BRANCH  33  35
ATOM     35  CA  VAL A   6      10.523   6.441  12.100  0.00  0.00    +0.149 C 
BRANCH  35  36
ATOM     36  C   VAL A   6       9.356   5.928  12.945  0.00  0.00    +0.241 C 
ATOM     37  N   LEU A   7       9.632   4.971  13.825  0.00  0.00    -0.298 N 
ATOM     38  H   LEU A   7      10.584   4.552  13.848  0.00  0.00    +0.150 HD
ATOM     39  O   VAL A   6       8.224   6.391  12.803  0.00  0.00    -0.273 OA
BRANCH  37  40
ATOM     40  CA  LEU A   7       8.610   4.500  14.764  0.00  0.00    +0.137 C 
BRANCH  40  41
ATOM     41  C   LEU A   7       8.062   5.658  15.604  0.00  0.00    +0.227 C 
ATOM     42  O   LEU A   7       6.860   5.773  15.768  0.00  0.00    -0.286 OA
ENDBRANCH  40  41
BRANCH  40  43
ATOM     43  CB  LEU A   7       9.188   3.434  15.692  0.00  0.00    +0.028 C 
BRANCH  43  44
ATOM     44  CG  LEU A   7       8.193   2.820  16.689  0.00  0.00    +0.002 C 
ATOM     45  CD2 LEU A   7       8.908   1.773  17.522  0.00  0.00    +0.000 C 
ATOM     46  CD1 LEU A   7       7.029   2.166  15.952  0.00  0.00    +0.000 C 
ENDBRANCH  43  44
ENDBRANCH  40  43
ENDBRANCH  37  40
ENDBRANCH  35  36
BRANCH  35  47
ATOM     47  CB  VAL A   6      10.728   5.544  10.848  0.00  0.00    +0.027 C 
ATOM     48  CG2 VAL A   6       9.371   5.218  10.207  0.00  0.00    +0.002 C 
ATOM     49  CG1 VAL A   6      11.638   6.224   9.844  0.00  0.00    +0.002 C 
ENDBRANCH  35  47
ENDBRANCH  33  35
ENDBRANCH  30  31
BRANCH  30  50
ATOM     50  CB  VAL A   5      14.112   8.688  14.069  0.00  0.00    +0.027 C 
ATOM     51  CG2 VAL A   5      13.625  10.118  14.337  0.00  0.00    +0.002 C 
ATOM     52  CG1 VAL A   5      14.384   8.474  12.548  0.00  0.00    +0.002 C 
ENDBRANCH  30  50
ENDBRANCH  28  30
ENDBRANCH   1  26
BRANCH   1  53
ATOM     53  CB  THR A   4      14.953   4.287  16.965  0.00  0.00    +0.137 C 
ATOM     54  CG2 THR A   4      14.536   5.099  18.216  0.00  0.00    +0.034 C 
BRANCH  53  55
ATOM     55  OG1 THR A   4      15.455   2.999  17.380  0.00  0.00    -0.382 OA
ATOM     56  HG1 THR A   4      15.749   2.489  16.584  0.00  0.00    +0.210 HD
ENDBRANCH  53  55
ENDBRANCH   1  53
TORSDOF 23
REMARK  Name = ../refined-set-2016/3coy/3coy_pocket.pdb
REMARK  236 active torsions:
REMARK  status: ('A' for Active; 'I' for Inactive)
REMARK    1  A    between atoms: _1  and  _3
REMARK    2  A    between atoms: _3  and  _4
REMARK    3  A    between atoms: _3  and  _6
REMARK    4  A    between atoms: _10  and  _11
REMARK    5  A    between atoms: _16  and  _18
REMARK    6  A    between atoms: _18  and  _19
REMARK    7  A    between atoms: _18  and  _21
REMARK    8  A    between atoms: _21  and  _22
REMARK    9  A    between atoms: _25  and  _27
REMARK   10  A    between atoms: _27  and  _28
REMARK   11  A    between atoms: _27  and  _30
REMARK   12  A    between atoms: _30  and  _31
REMARK   13  A    between atoms: _31  and  _32
REMARK   14  A    between atoms: _34  and  _36
REMARK   15  A    between atoms: _36  and  _37
REMARK   16  A    between atoms: _39  and  _41
REMARK   17  A    between atoms: _41  and  _42
REMARK   18  A    between atoms: _45  and  _47
REMARK   19  A    between atoms: _47  and  _48
REMARK   20  A    between atoms: _47  and  _50
REMARK   21  A    between atoms: _50  and  _51
REMARK   22  A    between atoms: _54  and  _56
REMARK   23  A    between atoms: _56  and  _57
REMARK   24  A    between atoms: _56  and  _59
REMARK   25  A    between atoms: _59  and  _60
REMARK   26  A    between atoms: _65  and  _67
REMARK   27  A    between atoms: _67  and  _68
REMARK   28  A    between atoms: _67  and  _70
REMARK   29  A    between atoms: _70  and  _71
REMARK   30  A    between atoms: _71  and  _72
REMARK   31  A    between atoms: _75  and  _77
REMARK   32  A    between atoms: _77  and  _78
REMARK   33  A    between atoms: _80  and  _82
REMARK   34  A    between atoms: _82  and  _83
REMARK   35  A    between atoms: _82  and  _85
REMARK   36  A    between atoms: _85  and  _86
REMARK   37  A    between atoms: _91  and  _93
REMARK   38  A    between atoms: _93  and  _94
REMARK   39  A    between atoms: _93  and  _96
REMARK   40  A    between atoms: _96  and  _97
REMARK   41  A    between atoms: _100  and  _102
REMARK   42  A    between atoms: _102  and  _103
REMARK   43  A    between atoms: _106  and  _108
REMARK   44  A    between atoms: _108  and  _109
REMARK   45  A    between atoms: _108  and  _111
REMARK   46  A    between atoms: _111  and  _112
REMARK   47  A    between atoms: _115  and  _117
REMARK   48  A    between atoms: _117  and  _118
REMARK   49  A    between atoms: _117  and  _120
REMARK   50  A    between atoms: _123  and  _125
REMARK   51  A    between atoms: _125  and  _126
REMARK   52  A    between atoms: _125  and  _128
REMARK   53  A    between atoms: _131  and  _133
REMARK   54  A    between atoms: _133  and  _134
REMARK   55  A    between atoms: _133  and  _136
REMARK   56  A    between atoms: _136  and  _137
REMARK   57  A    between atoms: _139  and  _141
REMARK   58  A    between atoms: _141  and  _142
REMARK   59  A    between atoms: _141  and  _144
REMARK   60  A    between atoms: _144  and  _145
REMARK   61  A    between atoms: _148  and  _150
REMARK   62  A    between atoms: _150  and  _151
REMARK   63  A    between atoms: _150  and  _153
REMARK   64  A    between atoms: _153  and  _154
REMARK   65  A    between atoms: _160  and  _162
REMARK   66  A    between atoms: _162  and  _163
REMARK   67  A    between atoms: _162  and  _165
REMARK   68  A    between atoms: _168  and  _170
REMARK   69  A    between atoms: _170  and  _171
REMARK   70  A    between atoms: _170  and  _173
REMARK   71  A    between atoms: _173  and  _174
REMARK   72  A    between atoms: _179  and  _181
REMARK   73  A    between atoms: _181  and  _182
REMARK   74  A    between atoms: _181  and  _184
REMARK   75  A    between atoms: _184  and  _185
REMARK   76  A    between atoms: _185  and  _186
REMARK   77  A    between atoms: _191  and  _193
REMARK   78  A    between atoms: _193  and  _194
REMARK   79  A    between atoms: _193  and  _196
REMARK   80  A    between atoms: _196  and  _197
REMARK   81  A    between atoms: _203  and  _205
REMARK   82  A    between atoms: _205  and  _206
REMARK   83  A    between atoms: _205  and  _208
REMARK   84  A    between atoms: _208  and  _209
REMARK   85  A    between atoms: _214  and  _215
REMARK   86  A    between atoms: _217  and  _219
REMARK   87  A    between atoms: _219  and  _220
REMARK   88  A    between atoms: _219  and  _222
REMARK   89  A    between atoms: _222  and  _223
REMARK   90  A    between atoms: _228  and  _229
REMARK   91  A    between atoms: _231  and  _233
REMARK   92  A    between atoms: _233  and  _234
REMARK   93  A    between atoms: _233  and  _236
REMARK   94  A    between atoms: _236  and  _237
REMARK   95  A    between atoms: _242  and  _244
REMARK   96  A    between atoms: _244  and  _245
REMARK   97  A    between atoms: _244  and  _247
REMARK   98  A    between atoms: _247  and  _248
REMARK   99  A    between atoms: _254  and  _256
REMARK  100  A    between atoms: _256  and  _257
REMARK  101  A    between atoms: _259  and  _261
REMARK  102  A    between atoms: _261  and  _262
REMARK  103  A    between atoms: _261  and  _264
REMARK  104  A    between atoms: _267  and  _269
REMARK  105  A    between atoms: _269  and  _270
REMARK  106  A    between atoms: _269  and  _272
REMARK  107  A    between atoms: _272  and  _273
REMARK  108  A    between atoms: _276  and  _278
REMARK  109  A    between atoms: _278  and  _279
REMARK  110  A    between atoms: _278  and  _281
REMARK  111  A    between atoms: _281  and  _282
REMARK  112  A    between atoms: _285  and  _287
REMARK  113  A    between atoms: _287  and  _288
REMARK  114  A    between atoms: _287  and  _290
REMARK  115  A    between atoms: _293  and  _295
REMARK  116  A    between atoms: _295  and  _296
REMARK  117  A    between atoms: _295  and  _298
REMARK  118  A    between atoms: _301  and  _303
REMARK  119  A    between atoms: _303  and  _304
REMARK  120  A    between atoms: _303  and  _306
REMARK  121  A    between atoms: _306  and  _307
REMARK  122  A    between atoms: _310  and  _312
REMARK  123  A    between atoms: _312  and  _313
REMARK  124  A    between atoms: _312  and  _315
REMARK  125  A    between atoms: _315  and  _316
REMARK  126  A    between atoms: _319  and  _321
REMARK  127  A    between atoms: _321  and  _322
REMARK  128  A    between atoms: _321  and  _324
REMARK  129  A    between atoms: _327  and  _329
REMARK  130  A    between atoms: _329  and  _330
REMARK  131  A    between atoms: _329  and  _332
REMARK  132  A    between atoms: _332  and  _333
REMARK  133  A    between atoms: _339  and  _341
REMARK  134  A    between atoms: _341  and  _342
REMARK  135  A    between atoms: _341  and  _344
REMARK  136  A    between atoms: _344  and  _345
REMARK  137  A    between atoms: _351  and  _353
REMARK  138  A    between atoms: _353  and  _354
REMARK  139  A    between atoms: _356  and  _358
REMARK  140  A    between atoms: _358  and  _359
REMARK  141  A    between atoms: _358  and  _361
REMARK  142  A    between atoms: _361  and  _362
REMARK  143  A    between atoms: _362  and  _363
REMARK  144  A    between atoms: _366  and  _368
REMARK  145  A    between atoms: _368  and  _369
REMARK  146  A    between atoms: _368  and  _371
REMARK  147  A    between atoms: _371  and  _372
REMARK  148  A    between atoms: _372  and  _373
REMARK  149  A    between atoms: _373  and  _374
REMARK  150  A    between atoms: _374  and  _375
REMARK  151  A    between atoms: _379  and  _381
REMARK  152  A    between atoms: _381  and  _382
REMARK  153  A    between atoms: _381  and  _384
REMARK  154  A    between atoms: _384  and  _385
REMARK  155  A    between atoms: _388  and  _390
REMARK  156  A    between atoms: _390  and  _391
REMARK  157  A    between atoms: _390  and  _393
REMARK  158  A    between atoms: _393  and  _394
REMARK  159  A    between atoms: _399  and  _400
REMARK  160  A    between atoms: _402  and  _404
REMARK  161  A    between atoms: _404  and  _405
REMARK  162  A    between atoms: _404  and  _407
REMARK  163  A    between atoms: _407  and  _408
REMARK  164  A    between atoms: _408  and  _409
REMARK  165  A    between atoms: _414  and  _416
REMARK  166  A    between atoms: _416  and  _417
REMARK  167  A    between atoms: _416  and  _419
REMARK  168  A    between atoms: _419  and  _420
REMARK  169  A    between atoms: _423  and  _425
REMARK  170  A    between atoms: _425  and  _426
REMARK  171  A    between atoms: _425  and  _428
REMARK  172  A    between atoms: _428  and  _429
REMARK  173  A    between atoms: _432  and  _434
REMARK  174  A    between atoms: _434  and  _435
REMARK  175  A    between atoms: _434  and  _437
REMARK  176  A    between atoms: _440  and  _442
REMARK  177  A    between atoms: _442  and  _443
REMARK  178  A    between atoms: _445  and  _447
REMARK  179  A    between atoms: _447  and  _448
REMARK  180  A    between atoms: _447  and  _450
REMARK  181  A    between atoms: _454  and  _455
REMARK  182  A    between atoms: _460  and  _462
REMARK  183  A    between atoms: _462  and  _463
REMARK  184  A    between atoms: _462  and  _465
REMARK  185  A    between atoms: _465  and  _466
REMARK  186  A    between atoms: _469  and  _471
REMARK  187  A    between atoms: _471  and  _472
REMARK  188  A    between atoms: _471  and  _474
REMARK  189  A    between atoms: _477  and  _479
REMARK  190  A    between atoms: _479  and  _480
REMARK  191  A    between atoms: _479  and  _482
REMARK  192  A    between atoms: _482  and  _483
REMARK  193  A    between atoms: _483  and  _484
REMARK  194  A    between atoms: _484  and  _485
REMARK  195  A    between atoms: _494  and  _496
REMARK  196  A    between atoms: _496  and  _497
REMARK  197  A    between atoms: _496  and  _499
REMARK  198  A    between atoms: _499  and  _500
REMARK  199  A    between atoms: _500  and  _501
REMARK  200  A    between atoms: _504  and  _506
REMARK  201  A    between atoms: _506  and  _507
REMARK  202  A    between atoms: _506  and  _509
REMARK  203  A    between atoms: _509  and  _510
REMARK  204  A    between atoms: _513  and  _515
REMARK  205  A    between atoms: _515  and  _516
REMARK  206  A    between atoms: _519  and  _521
REMARK  207  A    between atoms: _521  and  _522
REMARK  208  A    between atoms: _521  and  _524
REMARK  209  A    between atoms: _524  and  _525
REMARK  210  A    between atoms: _525  and  _526
REMARK  211  A    between atoms: _528  and  _530
REMARK  212  A    between atoms: _530  and  _531
REMARK  213  A    between atoms: _530  and  _533
REMARK  214  A    between atoms: _533  and  _534
REMARK  215  A    between atoms: _536  and  _538
REMARK  216  A    between atoms: _538  and  _539
REMARK  217  A    between atoms: _538  and  _541
REMARK  218  A    between atoms: _541  and  _542
REMARK  219  A    between atoms: _544  and  _546
REMARK  220  A    between atoms: _546  and  _547
REMARK  221  A    between atoms: _546  and  _549
REMARK  222  A    between atoms: _549  and  _550
REMARK  223  A    between atoms: _550  and  _551
REMARK  224  A    between atoms: _551  and  _552
REMARK  225  A    between atoms: _561  and  _563
REMARK  226  A    between atoms: _563  and  _564
REMARK  227  A    between atoms: _563  and  _566
REMARK  228  A    between atoms: _566  and  _567
REMARK  229  A    between atoms: _572  and  _574
REMARK  230  A    between atoms: _574  and  _575
REMARK  231  A    between atoms: _574  and  _577
REMARK  232  A    between atoms: _577  and  _578
REMARK  233  A    between atoms: _581  and  _583
REMARK  234  A    between atoms: _583  and  _584
REMARK  235  A    between atoms: _583  and  _586
REMARK  236  A    between atoms: _586  and  _587
REMARK                            x       y       z     vdW  Elec       q    Type
REMARK                         _______ _______ _______ _____ _____    ______ ____
ROOT
ATOM      1  CA  LEU A   1       7.276   9.748  13.966  0.00  0.00    +0.133 C 
ENDROOT
BRANCH   1   2
ATOM      2  N   LEU A   1       8.063   8.895  14.886  0.00  0.00    -0.239 NA
ATOM      3  H   LEU A   1       8.988   8.539  14.571  0.00  0.00    +0.142 HD
ENDBRANCH   1   2
BRANCH   1   4
ATOM      4  C   LEU A   1       5.895   9.160  13.654  0.00  0.00    +0.224 C 
ATOM      5  O   LEU A   1       4.893   9.896  13.630  0.00  0.00    -0.287 OA
ENDBRANCH   1   4
BRANCH   1   6
ATOM      6  CB  LEU A   1       8.040  10.002  12.662  0.00  0.00    +0.025 C 
BRANCH   6   7
ATOM      7  CG  LEU A   1       9.357  10.819  12.805  0.00  0.00    +0.002 C 
ATOM      8  CD2 LEU A   1       9.126  12.250  13.268  0.00  0.00    +0.000 C 
ATOM      9  CD1 LEU A   1      10.066  10.855  11.467  0.00  0.00    +0.000 C 
ENDBRANCH   6   7
ENDBRANCH   1   6
TORSDOF 4
REMARK  Name = ../refined-set-2016/3coy/3coy_pocket.pdb
REMARK  236 active torsions:
REMARK  status: ('A' for Active; 'I' for Inactive)
REMARK    1  A    between atoms: _1  and  _3
REMARK    2  A    between atoms: _3  and  _4
REMARK    3  A    between atoms: _3  and  _6
REMARK    4  A    between atoms: _10  and  _11
REMARK    5  A    between atoms: _16  and  _18
REMARK    6  A    between atoms: _18  and  _19
REMARK    7  A    between atoms: _18  and  _21
REMARK    8  A    between atoms: _21  and  _22
REMARK    9  A    between atoms: _25  and  _27
REMARK   10  A    between atoms: _27  and  _28
REMARK   11  A    between atoms: _27  and  _30
REMARK   12  A    between atoms: _30  and  _31
REMARK   13  A    between atoms: _31  and  _32
REMARK   14  A    between atoms: _34  and  _36
REMARK   15  A    between atoms: _36  and  _37
REMARK   16  A    between atoms: _39  and  _41
REMARK   17  A    between atoms: _41  and  _42
REMARK   18  A    between atoms: _45  and  _47
REMARK   19  A    between atoms: _47  and  _48
REMARK   20  A    between atoms: _47  and  _50
REMARK   21  A    between atoms: _50  and  _51
REMARK   22  A    between atoms: _54  and  _56
REMARK   23  A    between atoms: _56  and  _57
REMARK   24  A    between atoms: _56  and  _59
REMARK   25  A    between atoms: _59  and  _60
REMARK   26  A    between atoms: _65  and  _67
REMARK   27  A    between atoms: _67  and  _68
REMARK   28  A    between atoms: _67  and  _70
REMARK   29  A    between atoms: _70  and  _71
REMARK   30  A    between atoms: _71  and  _72
REMARK   31  A    between atoms: _75  and  _77
REMARK   32  A    between atoms: _77  and  _78
REMARK   33  A    between atoms: _80  and  _82
REMARK   34  A    between atoms: _82  and  _83
REMARK   35  A    between atoms: _82  and  _85
REMARK   36  A    between atoms: _85  and  _86
REMARK   37  A    between atoms: _91  and  _93
REMARK   38  A    between atoms: _93  and  _94
REMARK   39  A    between atoms: _93  and  _96
REMARK   40  A    between atoms: _96  and  _97
REMARK   41  A    between atoms: _100  and  _102
REMARK   42  A    between atoms: _102  and  _103
REMARK   43  A    between atoms: _106  and  _108
REMARK   44  A    between atoms: _108  and  _109
REMARK   45  A    between atoms: _108  and  _111
REMARK   46  A    between atoms: _111  and  _112
REMARK   47  A    between atoms: _115  and  _117
REMARK   48  A    between atoms: _117  and  _118
REMARK   49  A    between atoms: _117  and  _120
REMARK   50  A    between atoms: _123  and  _125
REMARK   51  A    between atoms: _125  and  _126
REMARK   52  A    between atoms: _125  and  _128
REMARK   53  A    between atoms: _131  and  _133
REMARK   54  A    between atoms: _133  and  _134
REMARK   55  A    between atoms: _133  and  _136
REMARK   56  A    between atoms: _136  and  _137
REMARK   57  A    between atoms: _139  and  _141
REMARK   58  A    between atoms: _141  and  _142
REMARK   59  A    between atoms: _141  and  _144
REMARK   60  A    between atoms: _144  and  _145
REMARK   61  A    between atoms: _148  and  _150
REMARK   62  A    between atoms: _150  and  _151
REMARK   63  A    between atoms: _150  and  _153
REMARK   64  A    between atoms: _153  and  _154
REMARK   65  A    between atoms: _160  and  _162
REMARK   66  A    between atoms: _162  and  _163
REMARK   67  A    between atoms: _162  and  _165
REMARK   68  A    between atoms: _168  and  _170
REMARK   69  A    between atoms: _170  and  _171
REMARK   70  A    between atoms: _170  and  _173
REMARK   71  A    between atoms: _173  and  _174
REMARK   72  A    between atoms: _179  and  _181
REMARK   73  A    between atoms: _181  and  _182
REMARK   74  A    between atoms: _181  and  _184
REMARK   75  A    between atoms: _184  and  _185
REMARK   76  A    between atoms: _185  and  _186
REMARK   77  A    between atoms: _191  and  _193
REMARK   78  A    between atoms: _193  and  _194
REMARK   79  A    between atoms: _193  and  _196
REMARK   80  A    between atoms: _196  and  _197
REMARK   81  A    between atoms: _203  and  _205
REMARK   82  A    between atoms: _205  and  _206
REMARK   83  A    between atoms: _205  and  _208
REMARK   84  A    between atoms: _208  and  _209
REMARK   85  A    between atoms: _214  and  _215
REMARK   86  A    between atoms: _217  and  _219
REMARK   87  A    between atoms: _219  and  _220
REMARK   88  A    between atoms: _219  and  _222
REMARK   89  A    between atoms: _222  and  _223
REMARK   90  A    between atoms: _228  and  _229
REMARK   91  A    between atoms: _231  and  _233
REMARK   92  A    between atoms: _233  and  _234
REMARK   93  A    between atoms: _233  and  _236
REMARK   94  A    between atoms: _236  and  _237
REMARK   95  A    between atoms: _242  and  _244
REMARK   96  A    between atoms: _244  and  _245
REMARK   97  A    between atoms: _244  and  _247
REMARK   98  A    between atoms: _247  and  _248
REMARK   99  A    between atoms: _254  and  _256
REMARK  100  A    between atoms: _256  and  _257
REMARK  101  A    between atoms: _259  and  _261
REMARK  102  A    between atoms: _261  and  _262
REMARK  103  A    between atoms: _261  and  _264
REMARK  104  A    between atoms: _267  and  _269
REMARK  105  A    between atoms: _269  and  _270
REMARK  106  A    between atoms: _269  and  _272
REMARK  107  A    between atoms: _272  and  _273
REMARK  108  A    between atoms: _276  and  _278
REMARK  109  A    between atoms: _278  and  _279
REMARK  110  A    between atoms: _278  and  _281
REMARK  111  A    between atoms: _281  and  _282
REMARK  112  A    between atoms: _285  and  _287
REMARK  113  A    between atoms: _287  and  _288
REMARK  114  A    between atoms: _287  and  _290
REMARK  115  A    between atoms: _293  and  _295
REMARK  116  A    between atoms: _295  and  _296
REMARK  117  A    between atoms: _295  and  _298
REMARK  118  A    between atoms: _301  and  _303
REMARK  119  A    between atoms: _303  and  _304
REMARK  120  A    between atoms: _303  and  _306
REMARK  121  A    between atoms: _306  and  _307
REMARK  122  A    between atoms: _310  and  _312
REMARK  123  A    between atoms: _312  and  _313
REMARK  124  A    between atoms: _312  and  _315
REMARK  125  A    between atoms: _315  and  _316
REMARK  126  A    between atoms: _319  and  _321
REMARK  127  A    between atoms: _321  and  _322
REMARK  128  A    between atoms: _321  and  _324
REMARK  129  A    between atoms: _327  and  _329
REMARK  130  A    between atoms: _329  and  _330
REMARK  131  A    between atoms: _329  and  _332
REMARK  132  A    between atoms: _332  and  _333
REMARK  133  A    between atoms: _339  and  _341
REMARK  134  A    between atoms: _341  and  _342
REMARK  135  A    between atoms: _341  and  _344
REMARK  136  A    between atoms: _344  and  _345
REMARK  137  A    between atoms: _351  and  _353
REMARK  138  A    between atoms: _353  and  _354
REMARK  139  A    between atoms: _356  and  _358
REMARK  140  A    between atoms: _358  and  _359
REMARK  141  A    between atoms: _358  and  _361
REMARK  142  A    between atoms: _361  and  _362
REMARK  143  A    between atoms: _362  and  _363
REMARK  144  A    between atoms: _366  and  _368
REMARK  145  A    between atoms: _368  and  _369
REMARK  146  A    between atoms: _368  and  _371
REMARK  147  A    between atoms: _371  and  _372
REMARK  148  A    between atoms: _372  and  _373
REMARK  149  A    between atoms: _373  and  _374
REMARK  150  A    between atoms: _374  and  _375
REMARK  151  A    between atoms: _379  and  _381
REMARK  152  A    between atoms: _381  and  _382
REMARK  153  A    between atoms: _381  and  _384
REMARK  154  A    between atoms: _384  and  _385
REMARK  155  A    between atoms: _388  and  _390
REMARK  156  A    between atoms: _390  and  _391
REMARK  157  A    between atoms: _390  and  _393
REMARK  158  A    between atoms: _393  and  _394
REMARK  159  A    between atoms: _399  and  _400
REMARK  160  A    between atoms: _402  and  _404
REMARK  161  A    between atoms: _404  and  _405
REMARK  162  A    between atoms: _404  and  _407
REMARK  163  A    between atoms: _407  and  _408
REMARK  164  A    between atoms: _408  and  _409
REMARK  165  A    between atoms: _414  and  _416
REMARK  166  A    between atoms: _416  and  _417
REMARK  167  A    between atoms: _416  and  _419
REMARK  168  A    between atoms: _419  and  _420
REMARK  169  A    between atoms: _423  and  _425
REMARK  170  A    between atoms: _425  and  _426
REMARK  171  A    between atoms: _425  and  _428
REMARK  172  A    between atoms: _428  and  _429
REMARK  173  A    between atoms: _432  and  _434
REMARK  174  A    between atoms: _434  and  _435
REMARK  175  A    between atoms: _434  and  _437
REMARK  176  A    between atoms: _440  and  _442
REMARK  177  A    between atoms: _442  and  _443
REMARK  178  A    between atoms: _445  and  _447
REMARK  179  A    between atoms: _447  and  _448
REMARK  180  A    between atoms: _447  and  _450
REMARK  181  A    between atoms: _454  and  _455
REMARK  182  A    between atoms: _460  and  _462
REMARK  183  A    between atoms: _462  and  _463
REMARK  184  A    between atoms: _462  and  _465
REMARK  185  A    between atoms: _465  and  _466
REMARK  186  A    between atoms: _469  and  _471
REMARK  187  A    between atoms: _471  and  _472
REMARK  188  A    between atoms: _471  and  _474
REMARK  189  A    between atoms: _477  and  _479
REMARK  190  A    between atoms: _479  and  _480
REMARK  191  A    between atoms: _479  and  _482
REMARK  192  A    between atoms: _482  and  _483
REMARK  193  A    between atoms: _483  and  _484
REMARK  194  A    between atoms: _484  and  _485
REMARK  195  A    between atoms: _494  and  _496
REMARK  196  A    between atoms: _496  and  _497
REMARK  197  A    between atoms: _496  and  _499
REMARK  198  A    between atoms: _499  and  _500
REMARK  199  A    between atoms: _500  and  _501
REMARK  200  A    between atoms: _504  and  _506
REMARK  201  A    between atoms: _506  and  _507
REMARK  202  A    between atoms: _506  and  _509
REMARK  203  A    between atoms: _509  and  _510
REMARK  204  A    between atoms: _513  and  _515
REMARK  205  A    between atoms: _515  and  _516
REMARK  206  A    between atoms: _519  and  _521
REMARK  207  A    between atoms: _521  and  _522
REMARK  208  A    between atoms: _521  and  _524
REMARK  209  A    between atoms: _524  and  _525
REMARK  210  A    between atoms: _525  and  _526
REMARK  211  A    between atoms: _528  and  _530
REMARK  212  A    between atoms: _530  and  _531
REMARK  213  A    between atoms: _530  and  _533
REMARK  214  A    between atoms: _533  and  _534
REMARK  215  A    between atoms: _536  and  _538
REMARK  216  A    between atoms: _538  and  _539
REMARK  217  A    between atoms: _538  and  _541
REMARK  218  A    between atoms: _541  and  _542
REMARK  219  A    between atoms: _544  and  _546
REMARK  220  A    between atoms: _546  and  _547
REMARK  221  A    between atoms: _546  and  _549
REMARK  222  A    between atoms: _549  and  _550
REMARK  223  A    between atoms: _550  and  _551
REMARK  224  A    between atoms: _551  and  _552
REMARK  225  A    between atoms: _561  and  _563
REMARK  226  A    between atoms: _563  and  _564
REMARK  227  A    between atoms: _563  and  _566
REMARK  228  A    between atoms: _566  and  _567
REMARK  229  A    between atoms: _572  and  _574
REMARK  230  A    between atoms: _574  and  _575
REMARK  231  A    between atoms: _574  and  _577
REMARK  232  A    between atoms: _577  and  _578
REMARK  233  A    between atoms: _581  and  _583
REMARK  234  A    between atoms: _583  and  _584
REMARK  235  A    between atoms: _583  and  _586
REMARK  236  A    between atoms: _586  and  _587
REMARK                            x       y       z     vdW  Elec       q    Type
REMARK                         _______ _______ _______ _____ _____    ______ ____
ROOT
ATOM      1  CA  GLU A   5      13.002   3.387  -3.641  0.00  0.00    +0.149 C 
ENDROOT
BRANCH   1   2
ATOM      2  C   GLU A   5      14.511   3.657  -3.740  0.00  0.00    +0.241 C 
ATOM      3  N   LYS A   6      14.857   4.933  -3.770  0.00  0.00    -0.297 N 
ATOM      4  H   LYS A   6      14.096   5.641  -3.813  0.00  0.00    +0.150 HD
ATOM      5  O   GLU A   5      15.319   2.734  -3.813  0.00  0.00    -0.273 OA
BRANCH   3   6
ATOM      6  CA  LYS A   6      16.233   5.415  -3.747  0.00  0.00    +0.149 C 
BRANCH   6   7
ATOM      7  C   LYS A   6      16.976   4.746  -2.587  0.00  0.00    +0.241 C 
ATOM      8  N   ASP A   7      16.351   4.753  -1.419  0.00  0.00    -0.297 N 
ATOM      9  H   ASP A   7      15.443   5.251  -1.325  0.00  0.00    +0.150 HD
ATOM     10  O   LYS A   6      18.075   4.202  -2.738  0.00  0.00    -0.273 OA
BRANCH   8  11
ATOM     11  CA  ASP A   7      16.916   4.077  -0.274  0.00  0.00    +0.160 C 
BRANCH  11  12
ATOM     12  C   ASP A   7      16.164   2.766  -0.087  0.00  0.00    +0.241 C 
ATOM     13  O   ASP A   7      15.325   2.615   0.797  0.00  0.00    -0.273 OA
ATOM     14  N   TYR A   8      16.457   1.814  -0.963  0.00  0.00    -0.298 N 
ATOM     15  H   TYR A   8      17.282   1.927  -1.586  0.00  0.00    +0.150 HD
BRANCH  14  16
ATOM     16  CA  TYR A   8      15.644   0.619  -1.064  0.00  0.00    +0.141 C 
BRANCH  16  17
ATOM     17  C   TYR A   8      15.705  -0.236   0.186  0.00  0.00    +0.227 C 
ATOM     18  O   TYR A   8      14.686  -0.752   0.647  0.00  0.00    -0.286 OA
ENDBRANCH  16  17
BRANCH  16  19
ATOM     19  CB  TYR A   8      16.033  -0.198  -2.304  0.00  0.00    +0.054 C 
BRANCH  19  20
ATOM     20  CG  TYR A   8      15.045  -1.279  -2.665  0.00  0.00    -0.020 A 
ATOM     21  CD2 TYR A   8      15.299  -2.599  -2.361  0.00  0.00    -0.001 A 
ATOM     22  CE2 TYR A   8      14.374  -3.614  -2.696  0.00  0.00    +0.036 A 
ATOM     23  CZ  TYR A   8      13.207  -3.265  -3.349  0.00  0.00    +0.134 A 
ATOM     24  CE1 TYR A   8      12.916  -1.952  -3.647  0.00  0.00    +0.036 A 
ATOM     25  CD1 TYR A   8      13.844  -0.959  -3.310  0.00  0.00    -0.001 A 
BRANCH  23  26
ATOM     26  OH  TYR A   8      12.298  -4.216  -3.670  0.00  0.00    -0.506 OA
ATOM     27  HH  TYR A   8      11.985  -4.664  -2.844  0.00  0.00    +0.292 HD
ENDBRANCH  23  26
ENDBRANCH  19  20
ENDBRANCH  16  19
ENDBRANCH  14  16
ENDBRANCH  11  12
BRANCH  11  28
ATOM     28  CB  ASP A   7      16.844   5.022   0.922  0.00  0.00    +0.143 C 
BRANCH  28  29
ATOM     29  CG  ASP A   7      17.625   6.283   0.674  0.00  0.00    +0.367 C 
ATOM     30  OD2 ASP A   7      18.855   6.230   0.887  0.00  0.00    -0.246 OA
ATOM     31  OD1 ASP A   7      17.050   7.305   0.222  0.00  0.00    -0.246 OA
ENDBRANCH  28  29
ENDBRANCH  11  28
ENDBRANCH   8  11
ENDBRANCH   6   7
BRANCH   6  32
ATOM     32  CB  LYS A   6      16.167   6.925  -3.572  0.00  0.00    +0.029 C 
BRANCH  32  33
ATOM     33  CG  LYS A   6      17.203   7.679  -4.333  0.00  0.00    +0.000 C 
BRANCH  33  34
ATOM     34  CD  LYS A   6      18.449   7.719  -3.558  0.00  0.00    -0.024 C 
BRANCH  34  35
ATOM     35  CE  LYS A   6      19.540   8.338  -4.360  0.00  0.00    -0.086 C 
BRANCH  35  36
ATOM     36  NZ  LYS A   6      20.805   7.801  -3.775  0.00  0.00    +0.380 N 
ATOM     37  HZ1 LYS A   6      20.864   8.072  -2.773  0.00  0.00    -0.089 HD
ATOM     38  HZ2 LYS A   6      20.810   6.764  -3.856  0.00  0.00    -0.089 HD
ATOM     39  HZ3 LYS A   6      21.618   8.194  -4.290  0.00  0.00    -0.089 HD
ENDBRANCH  35  36
ENDBRANCH  34  35
ENDBRANCH  33  34
ENDBRANCH  32  33
ENDBRANCH   6  32
ENDBRANCH   3   6
ENDBRANCH   1   2
BRANCH   1  42
ATOM     40  C   GLY A   4      12.391   5.186  -2.097  0.00  0.00    +0.243 C 
ATOM     41  O   GLY A   4      13.057   4.681  -1.200  0.00  0.00    -0.273 OA
ATOM     42  N   GLU A   5      12.244   4.603  -3.289  0.00  0.00    -0.297 N 
ATOM     43  H   GLU A   5      11.584   5.013  -3.981  0.00  0.00    +0.150 HD
BRANCH  40  44
ATOM     44  CA  GLY A   4      11.716   6.519  -1.872  0.00  0.00    +0.176 C 
BRANCH  44  46
ATOM     45  C   PHE A   3      10.037   6.104  -0.146  0.00  0.00    +0.241 C 
ATOM     46  N   GLY A   4      11.200   6.661  -0.486  0.00  0.00    -0.295 N 
ATOM     47  H   GLY A   4      11.746   7.195   0.220  0.00  0.00    +0.150 HD
ATOM     48  O   PHE A   3       9.379   5.438  -0.945  0.00  0.00    -0.273 OA
BRANCH  45  49
ATOM     49  CA  PHE A   3       9.548   6.278   1.294  0.00  0.00    +0.153 C 
BRANCH  49  52
ATOM     50  C   PHE A   2       7.515   7.403   2.099  0.00  0.00    +0.241 C 
ATOM     51  O   PHE A   2       8.148   8.172   2.840  0.00  0.00    -0.273 OA
ATOM     52  N   PHE A   3       8.088   6.448   1.371  0.00  0.00    -0.297 N 
ATOM     53  H   PHE A   3       7.480   5.796   0.835  0.00  0.00    +0.150 HD
BRANCH  50  54
ATOM     54  CA  PHE A   2       5.984   7.494   2.011  0.00  0.00    +0.153 C 
BRANCH  54  56
ATOM     55  C   VAL A   1       4.667   6.507   3.831  0.00  0.00    +0.238 C 
ATOM     56  N   PHE A   2       5.320   7.537   3.324  0.00  0.00    -0.297 N 
ATOM     57  H   PHE A   2       5.367   8.417   3.877  0.00  0.00    +0.150 HD
ATOM     58  O   VAL A   1       4.637   5.391   3.286  0.00  0.00    -0.274 OA
BRANCH  55  59
ATOM     59  CA  VAL A   1       3.867   6.793   5.093  0.00  0.00    +0.145 C 
BRANCH  59  60
ATOM     60  CB  VAL A   1       4.557   6.338   6.427  0.00  0.00    +0.025 C 
ATOM     61  CG2 VAL A   1       5.799   7.225   6.761  0.00  0.00    +0.002 C 
ATOM     62  CG1 VAL A   1       4.912   4.825   6.402  0.00  0.00    +0.002 C 
ENDBRANCH  59  60
BRANCH  59  63
ATOM     63  N   VAL A   1       2.536   6.167   4.930  0.00  0.00    -0.238 NA
ATOM     64  H   VAL A   1       2.472   5.166   4.654  0.00  0.00    +0.142 HD
ENDBRANCH  59  63
ENDBRANCH  55  59
ENDBRANCH  54  56
BRANCH  54  65
ATOM     65  CB  PHE A   2       5.542   8.723   1.202  0.00  0.00    +0.055 C 
BRANCH  65  66
ATOM     66  CG  PHE A   2       4.082   8.692   0.875  0.00  0.00    -0.020 A 
ATOM     67  CD2 PHE A   2       3.121   8.940   1.872  0.00  0.00    -0.004 A 
ATOM     68  CE2 PHE A   2       1.752   8.870   1.589  0.00  0.00    -0.000 A 
ATOM     69  CZ  PHE A   2       1.339   8.496   0.312  0.00  0.00    -0.000 A 
ATOM     70  CE1 PHE A   2       2.281   8.239  -0.683  0.00  0.00    -0.000 A 
ATOM     71  CD1 PHE A   2       3.662   8.298  -0.379  0.00  0.00    -0.004 A 
ENDBRANCH  65  66
ENDBRANCH  54  65
ENDBRANCH  50  54
ENDBRANCH  49  52
BRANCH  49  72
ATOM     72  CB  PHE A   3       9.976   5.082   2.145  0.00  0.00    +0.055 C 
BRANCH  72  73
ATOM     73  CG  PHE A   3       9.992   5.379   3.626  0.00  0.00    -0.020 A 
ATOM     74  CD2 PHE A   3       8.868   5.123   4.421  0.00  0.00    -0.004 A 
ATOM     75  CE2 PHE A   3       8.877   5.429   5.779  0.00  0.00    -0.000 A 
ATOM     76  CZ  PHE A   3      10.015   6.009   6.360  0.00  0.00    -0.000 A 
ATOM     77  CE1 PHE A   3      11.118   6.266   5.606  0.00  0.00    -0.000 A 
ATOM     78  CD1 PHE A   3      11.112   5.955   4.217  0.00  0.00    -0.004 A 
ENDBRANCH  72  73
ENDBRANCH  49  72
ENDBRANCH  45  49
ENDBRANCH  44  46
ENDBRANCH  40  44
ENDBRANCH   1  42
BRANCH   1  79
ATOM     79  CB  GLU A   5      12.497   2.777  -4.957  0.00  0.00    +0.041 C 
BRANCH  79  80
ATOM     80  CG  GLU A   5      11.180   2.024  -4.831  0.00  0.00    +0.116 C 
BRANCH  80  81
ATOM     81  CD  GLU A   5      10.607   1.649  -6.193  0.00  0.00    +0.365 C 
ATOM     82  OE2 GLU A   5       9.396   1.341  -6.250  0.00  0.00    -0.246 OA
ATOM     83  OE1 GLU A   5      11.366   1.697  -7.194  0.00  0.00    -0.246 OA
ENDBRANCH  80  81
ENDBRANCH  79  80
ENDBRANCH   1  79
TORSDOF 34
REMARK  Name = ../refined-set-2016/3coy/3coy_pocket.pdb
REMARK  236 active torsions:
REMARK  status: ('A' for Active; 'I' for Inactive)
REMARK    1  A    between atoms: _1  and  _3
REMARK    2  A    between atoms: _3  and  _4
REMARK    3  A    between atoms: _3  and  _6
REMARK    4  A    between atoms: _10  and  _11
REMARK    5  A    between atoms: _16  and  _18
REMARK    6  A    between atoms: _18  and  _19
REMARK    7  A    between atoms: _18  and  _21
REMARK    8  A    between atoms: _21  and  _22
REMARK    9  A    between atoms: _25  and  _27
REMARK   10  A    between atoms: _27  and  _28
REMARK   11  A    between atoms: _27  and  _30
REMARK   12  A    between atoms: _30  and  _31
REMARK   13  A    between atoms: _31  and  _32
REMARK   14  A    between atoms: _34  and  _36
REMARK   15  A    between atoms: _36  and  _37
REMARK   16  A    between atoms: _39  and  _41
REMARK   17  A    between atoms: _41  and  _42
REMARK   18  A    between atoms: _45  and  _47
REMARK   19  A    between atoms: _47  and  _48
REMARK   20  A    between atoms: _47  and  _50
REMARK   21  A    between atoms: _50  and  _51
REMARK   22  A    between atoms: _54  and  _56
REMARK   23  A    between atoms: _56  and  _57
REMARK   24  A    between atoms: _56  and  _59
REMARK   25  A    between atoms: _59  and  _60
REMARK   26  A    between atoms: _65  and  _67
REMARK   27  A    between atoms: _67  and  _68
REMARK   28  A    between atoms: _67  and  _70
REMARK   29  A    between atoms: _70  and  _71
REMARK   30  A    between atoms: _71  and  _72
REMARK   31  A    between atoms: _75  and  _77
REMARK   32  A    between atoms: _77  and  _78
REMARK   33  A    between atoms: _80  and  _82
REMARK   34  A    between atoms: _82  and  _83
REMARK   35  A    between atoms: _82  and  _85
REMARK   36  A    between atoms: _85  and  _86
REMARK   37  A    between atoms: _91  and  _93
REMARK   38  A    between atoms: _93  and  _94
REMARK   39  A    between atoms: _93  and  _96
REMARK   40  A    between atoms: _96  and  _97
REMARK   41  A    between atoms: _100  and  _102
REMARK   42  A    between atoms: _102  and  _103
REMARK   43  A    between atoms: _106  and  _108
REMARK   44  A    between atoms: _108  and  _109
REMARK   45  A    between atoms: _108  and  _111
REMARK   46  A    between atoms: _111  and  _112
REMARK   47  A    between atoms: _115  and  _117
REMARK   48  A    between atoms: _117  and  _118
REMARK   49  A    between atoms: _117  and  _120
REMARK   50  A    between atoms: _123  and  _125
REMARK   51  A    between atoms: _125  and  _126
REMARK   52  A    between atoms: _125  and  _128
REMARK   53  A    between atoms: _131  and  _133
REMARK   54  A    between atoms: _133  and  _134
REMARK   55  A    between atoms: _133  and  _136
REMARK   56  A    between atoms: _136  and  _137
REMARK   57  A    between atoms: _139  and  _141
REMARK   58  A    between atoms: _141  and  _142
REMARK   59  A    between atoms: _141  and  _144
REMARK   60  A    between atoms: _144  and  _145
REMARK   61  A    between atoms: _148  and  _150
REMARK   62  A    between atoms: _150  and  _151
REMARK   63  A    between atoms: _150  and  _153
REMARK   64  A    between atoms: _153  and  _154
REMARK   65  A    between atoms: _160  and  _162
REMARK   66  A    between atoms: _162  and  _163
REMARK   67  A    between atoms: _162  and  _165
REMARK   68  A    between atoms: _168  and  _170
REMARK   69  A    between atoms: _170  and  _171
REMARK   70  A    between atoms: _170  and  _173
REMARK   71  A    between atoms: _173  and  _174
REMARK   72  A    between atoms: _179  and  _181
REMARK   73  A    between atoms: _181  and  _182
REMARK   74  A    between atoms: _181  and  _184
REMARK   75  A    between atoms: _184  and  _185
REMARK   76  A    between atoms: _185  and  _186
REMARK   77  A    between atoms: _191  and  _193
REMARK   78  A    between atoms: _193  and  _194
REMARK   79  A    between atoms: _193  and  _196
REMARK   80  A    between atoms: _196  and  _197
REMARK   81  A    between atoms: _203  and  _205
REMARK   82  A    between atoms: _205  and  _206
REMARK   83  A    between atoms: _205  and  _208
REMARK   84  A    between atoms: _208  and  _209
REMARK   85  A    between atoms: _214  and  _215
REMARK   86  A    between atoms: _217  and  _219
REMARK   87  A    between atoms: _219  and  _220
REMARK   88  A    between atoms: _219  and  _222
REMARK   89  A    between atoms: _222  and  _223
REMARK   90  A    between atoms: _228  and  _229
REMARK   91  A    between atoms: _231  and  _233
REMARK   92  A    between atoms: _233  and  _234
REMARK   93  A    between atoms: _233  and  _236
REMARK   94  A    between atoms: _236  and  _237
REMARK   95  A    between atoms: _242  and  _244
REMARK   96  A    between atoms: _244  and  _245
REMARK   97  A    between atoms: _244  and  _247
REMARK   98  A    between atoms: _247  and  _248
REMARK   99  A    between atoms: _254  and  _256
REMARK  100  A    between atoms: _256  and  _257
REMARK  101  A    between atoms: _259  and  _261
REMARK  102  A    between atoms: _261  and  _262
REMARK  103  A    between atoms: _261  and  _264
REMARK  104  A    between atoms: _267  and  _269
REMARK  105  A    between atoms: _269  and  _270
REMARK  106  A    between atoms: _269  and  _272
REMARK  107  A    between atoms: _272  and  _273
REMARK  108  A    between atoms: _276  and  _278
REMARK  109  A    between atoms: _278  and  _279
REMARK  110  A    between atoms: _278  and  _281
REMARK  111  A    between atoms: _281  and  _282
REMARK  112  A    between atoms: _285  and  _287
REMARK  113  A    between atoms: _287  and  _288
REMARK  114  A    between atoms: _287  and  _290
REMARK  115  A    between atoms: _293  and  _295
REMARK  116  A    between atoms: _295  and  _296
REMARK  117  A    between atoms: _295  and  _298
REMARK  118  A    between atoms: _301  and  _303
REMARK  119  A    between atoms: _303  and  _304
REMARK  120  A    between atoms: _303  and  _306
REMARK  121  A    between atoms: _306  and  _307
REMARK  122  A    between atoms: _310  and  _312
REMARK  123  A    between atoms: _312  and  _313
REMARK  124  A    between atoms: _312  and  _315
REMARK  125  A    between atoms: _315  and  _316
REMARK  126  A    between atoms: _319  and  _321
REMARK  127  A    between atoms: _321  and  _322
REMARK  128  A    between atoms: _321  and  _324
REMARK  129  A    between atoms: _327  and  _329
REMARK  130  A    between atoms: _329  and  _330
REMARK  131  A    between atoms: _329  and  _332
REMARK  132  A    between atoms: _332  and  _333
REMARK  133  A    between atoms: _339  and  _341
REMARK  134  A    between atoms: _341  and  _342
REMARK  135  A    between atoms: _341  and  _344
REMARK  136  A    between atoms: _344  and  _345
REMARK  137  A    between atoms: _351  and  _353
REMARK  138  A    between atoms: _353  and  _354
REMARK  139  A    between atoms: _356  and  _358
REMARK  140  A    between atoms: _358  and  _359
REMARK  141  A    between atoms: _358  and  _361
REMARK  142  A    between atoms: _361  and  _362
REMARK  143  A    between atoms: _362  and  _363
REMARK  144  A    between atoms: _366  and  _368
REMARK  145  A    between atoms: _368  and  _369
REMARK  146  A    between atoms: _368  and  _371
REMARK  147  A    between atoms: _371  and  _372
REMARK  148  A    between atoms: _372  and  _373
REMARK  149  A    between atoms: _373  and  _374
REMARK  150  A    between atoms: _374  and  _375
REMARK  151  A    between atoms: _379  and  _381
REMARK  152  A    between atoms: _381  and  _382
REMARK  153  A    between atoms: _381  and  _384
REMARK  154  A    between atoms: _384  and  _385
REMARK  155  A    between atoms: _388  and  _390
REMARK  156  A    between atoms: _390  and  _391
REMARK  157  A    between atoms: _390  and  _393
REMARK  158  A    between atoms: _393  and  _394
REMARK  159  A    between atoms: _399  and  _400
REMARK  160  A    between atoms: _402  and  _404
REMARK  161  A    between atoms: _404  and  _405
REMARK  162  A    between atoms: _404  and  _407
REMARK  163  A    between atoms: _407  and  _408
REMARK  164  A    between atoms: _408  and  _409
REMARK  165  A    between atoms: _414  and  _416
REMARK  166  A    between atoms: _416  and  _417
REMARK  167  A    between atoms: _416  and  _419
REMARK  168  A    between atoms: _419  and  _420
REMARK  169  A    between atoms: _423  and  _425
REMARK  170  A    between atoms: _425  and  _426
REMARK  171  A    between atoms: _425  and  _428
REMARK  172  A    between atoms: _428  and  _429
REMARK  173  A    between atoms: _432  and  _434
REMARK  174  A    between atoms: _434  and  _435
REMARK  175  A    between atoms: _434  and  _437
REMARK  176  A    between atoms: _440  and  _442
REMARK  177  A    between atoms: _442  and  _443
REMARK  178  A    between atoms: _445  and  _447
REMARK  179  A    between atoms: _447  and  _448
REMARK  180  A    between atoms: _447  and  _450
REMARK  181  A    between atoms: _454  and  _455
REMARK  182  A    between atoms: _460  and  _462
REMARK  183  A    between atoms: _462  and  _463
REMARK  184  A    between atoms: _462  and  _465
REMARK  185  A    between atoms: _465  and  _466
REMARK  186  A    between atoms: _469  and  _471
REMARK  187  A    between atoms: _471  and  _472
REMARK  188  A    between atoms: _471  and  _474
REMARK  189  A    between atoms: _477  and  _479
REMARK  190  A    between atoms: _479  and  _480
REMARK  191  A    between atoms: _479  and  _482
REMARK  192  A    between atoms: _482  and  _483
REMARK  193  A    between atoms: _483  and  _484
REMARK  194  A    between atoms: _484  and  _485
REMARK  195  A    between atoms: _494  and  _496
REMARK  196  A    between atoms: _496  and  _497
REMARK  197  A    between atoms: _496  and  _499
REMARK  198  A    between atoms: _499  and  _500
REMARK  199  A    between atoms: _500  and  _501
REMARK  200  A    between atoms: _504  and  _506
REMARK  201  A    between atoms: _506  and  _507
REMARK  202  A    between atoms: _506  and  _509
REMARK  203  A    between atoms: _509  and  _510
REMARK  204  A    between atoms: _513  and  _515
REMARK  205  A    between atoms: _515  and  _516
REMARK  206  A    between atoms: _519  and  _521
REMARK  207  A    between atoms: _521  and  _522
REMARK  208  A    between atoms: _521  and  _524
REMARK  209  A    between atoms: _524  and  _525
REMARK  210  A    between atoms: _525  and  _526
REMARK  211  A    between atoms: _528  and  _530
REMARK  212  A    between atoms: _530  and  _531
REMARK  213  A    between atoms: _530  and  _533
REMARK  214  A    between atoms: _533  and  _534
REMARK  215  A    between atoms: _536  and  _538
REMARK  216  A    between atoms: _538  and  _539
REMARK  217  A    between atoms: _538  and  _541
REMARK  218  A    between atoms: _541  and  _542
REMARK  219  A    between atoms: _544  and  _546
REMARK  220  A    between atoms: _546  and  _547
REMARK  221  A    between atoms: _546  and  _549
REMARK  222  A    between atoms: _549  and  _550
REMARK  223  A    between atoms: _550  and  _551
REMARK  224  A    between atoms: _551  and  _552
REMARK  225  A    between atoms: _561  and  _563
REMARK  226  A    between atoms: _563  and  _564
REMARK  227  A    between atoms: _563  and  _566
REMARK  228  A    between atoms: _566  and  _567
REMARK  229  A    between atoms: _572  and  _574
REMARK  230  A    between atoms: _574  and  _575
REMARK  231  A    between atoms: _574  and  _577
REMARK  232  A    between atoms: _577  and  _578
REMARK  233  A    between atoms: _581  and  _583
REMARK  234  A    between atoms: _583  and  _584
REMARK  235  A    between atoms: _583  and  _586
REMARK  236  A    between atoms: _586  and  _587
REMARK                            x       y       z     vdW  Elec       q    Type
REMARK                         _______ _______ _______ _____ _____    ______ ____
ROOT
ATOM      1  C   GLN A   1      14.080   1.183   4.050  0.00  0.00    +0.238 C 
ATOM      2  O   GLN A   1      13.386   0.905   5.012  0.00  0.00    -0.274 OA
ATOM      3  N   LEU A   2      13.600   1.267   2.811  0.00  0.00    -0.298 N 
ATOM      4  H   LEU A   2      14.237   1.562   2.044  0.00  0.00    +0.150 HD
ENDROOT
BRANCH   1   5
ATOM      5  CA  GLN A   1      15.577   1.455   4.234  0.00  0.00    +0.145 C 
BRANCH   5   6
ATOM      6  N   GLN A   1      16.375   0.721   3.260  0.00  0.00    -0.238 NA
ATOM      7  H   GLN A   1      17.015   1.251   2.634  0.00  0.00    +0.142 HD
ENDBRANCH   5   6
BRANCH   5   8
ATOM      8  CB  GLN A   1      15.840   2.949   4.081  0.00  0.00    +0.036 C 
BRANCH   8   9
ATOM      9  CG  GLN A   1      14.876   3.832   4.822  0.00  0.00    +0.087 C 
BRANCH   9  10
ATOM     10  CD  GLN A   1      15.356   5.252   4.834  0.00  0.00    +0.219 C 
ATOM     11  OE1 GLN A   1      16.161   5.634   5.686  0.00  0.00    -0.275 OA
ATOM     12  NE2 GLN A   1      14.900   6.041   3.867  0.00  0.00    -0.329 N 
ATOM     13 HE21 GLN A   1      15.222   7.028   3.806  0.00  0.00    +0.145 HD
ATOM     14 HE22 GLN A   1      14.221   5.672   3.171  0.00  0.00    +0.145 HD
ENDBRANCH   9  10
ENDBRANCH   8   9
ENDBRANCH   5   8
ENDBRANCH   1   5
BRANCH   3  15
ATOM     15  CA  LEU A   2      12.204   0.957   2.493  0.00  0.00    +0.137 C 
BRANCH  15  16
ATOM     16  C   LEU A   2      11.825  -0.451   2.914  0.00  0.00    +0.227 C 
ATOM     17  O   LEU A   2      10.801  -0.662   3.545  0.00  0.00    -0.286 OA
ENDBRANCH  15  16
BRANCH  15  18
ATOM     18  CB  LEU A   2      11.926   1.147   0.990  0.00  0.00    +0.028 C 
BRANCH  18  19
ATOM     19  CG  LEU A   2      10.540   0.764   0.395  0.00  0.00    +0.002 C 
ATOM     20  CD2 LEU A   2       9.330   1.491   1.008  0.00  0.00    +0.000 C 
ATOM     21  CD1 LEU A   2      10.556   1.025  -1.145  0.00  0.00    +0.000 C 
ENDBRANCH  18  19
ENDBRANCH  15  18
ENDBRANCH   3  15
TORSDOF 9
REMARK  Name = ../refined-set-2016/3coy/3coy_pocket.pdb
REMARK  236 active torsions:
REMARK  status: ('A' for Active; 'I' for Inactive)
REMARK    1  A    between atoms: _1  and  _3
REMARK    2  A    between atoms: _3  and  _4
REMARK    3  A    between atoms: _3  and  _6
REMARK    4  A    between atoms: _10  and  _11
REMARK    5  A    between atoms: _16  and  _18
REMARK    6  A    between atoms: _18  and  _19
REMARK    7  A    between atoms: _18  and  _21
REMARK    8  A    between atoms: _21  and  _22
REMARK    9  A    between atoms: _25  and  _27
REMARK   10  A    between atoms: _27  and  _28
REMARK   11  A    between atoms: _27  and  _30
REMARK   12  A    between atoms: _30  and  _31
REMARK   13  A    between atoms: _31  and  _32
REMARK   14  A    between atoms: _34  and  _36
REMARK   15  A    between atoms: _36  and  _37
REMARK   16  A    between atoms: _39  and  _41
REMARK   17  A    between atoms: _41  and  _42
REMARK   18  A    between atoms: _45  and  _47
REMARK   19  A    between atoms: _47  and  _48
REMARK   20  A    between atoms: _47  and  _50
REMARK   21  A    between atoms: _50  and  _51
REMARK   22  A    between atoms: _54  and  _56
REMARK   23  A    between atoms: _56  and  _57
REMARK   24  A    between atoms: _56  and  _59
REMARK   25  A    between atoms: _59  and  _60
REMARK   26  A    between atoms: _65  and  _67
REMARK   27  A    between atoms: _67  and  _68
REMARK   28  A    between atoms: _67  and  _70
REMARK   29  A    between atoms: _70  and  _71
REMARK   30  A    between atoms: _71  and  _72
REMARK   31  A    between atoms: _75  and  _77
REMARK   32  A    between atoms: _77  and  _78
REMARK   33  A    between atoms: _80  and  _82
REMARK   34  A    between atoms: _82  and  _83
REMARK   35  A    between atoms: _82  and  _85
REMARK   36  A    between atoms: _85  and  _86
REMARK   37  A    between atoms: _91  and  _93
REMARK   38  A    between atoms: _93  and  _94
REMARK   39  A    between atoms: _93  and  _96
REMARK   40  A    between atoms: _96  and  _97
REMARK   41  A    between atoms: _100  and  _102
REMARK   42  A    between atoms: _102  and  _103
REMARK   43  A    between atoms: _106  and  _108
REMARK   44  A    between atoms: _108  and  _109
REMARK   45  A    between atoms: _108  and  _111
REMARK   46  A    between atoms: _111  and  _112
REMARK   47  A    between atoms: _115  and  _117
REMARK   48  A    between atoms: _117  and  _118
REMARK   49  A    between atoms: _117  and  _120
REMARK   50  A    between atoms: _123  and  _125
REMARK   51  A    between atoms: _125  and  _126
REMARK   52  A    between atoms: _125  and  _128
REMARK   53  A    between atoms: _131  and  _133
REMARK   54  A    between atoms: _133  and  _134
REMARK   55  A    between atoms: _133  and  _136
REMARK   56  A    between atoms: _136  and  _137
REMARK   57  A    between atoms: _139  and  _141
REMARK   58  A    between atoms: _141  and  _142
REMARK   59  A    between atoms: _141  and  _144
REMARK   60  A    between atoms: _144  and  _145
REMARK   61  A    between atoms: _148  and  _150
REMARK   62  A    between atoms: _150  and  _151
REMARK   63  A    between atoms: _150  and  _153
REMARK   64  A    between atoms: _153  and  _154
REMARK   65  A    between atoms: _160  and  _162
REMARK   66  A    between atoms: _162  and  _163
REMARK   67  A    between atoms: _162  and  _165
REMARK   68  A    between atoms: _168  and  _170
REMARK   69  A    between atoms: _170  and  _171
REMARK   70  A    between atoms: _170  and  _173
REMARK   71  A    between atoms: _173  and  _174
REMARK   72  A    between atoms: _179  and  _181
REMARK   73  A    between atoms: _181  and  _182
REMARK   74  A    between atoms: _181  and  _184
REMARK   75  A    between atoms: _184  and  _185
REMARK   76  A    between atoms: _185  and  _186
REMARK   77  A    between atoms: _191  and  _193
REMARK   78  A    between atoms: _193  and  _194
REMARK   79  A    between atoms: _193  and  _196
REMARK   80  A    between atoms: _196  and  _197
REMARK   81  A    between atoms: _203  and  _205
REMARK   82  A    between atoms: _205  and  _206
REMARK   83  A    between atoms: _205  and  _208
REMARK   84  A    between atoms: _208  and  _209
REMARK   85  A    between atoms: _214  and  _215
REMARK   86  A    between atoms: _217  and  _219
REMARK   87  A    between atoms: _219  and  _220
REMARK   88  A    between atoms: _219  and  _222
REMARK   89  A    between atoms: _222  and  _223
REMARK   90  A    between atoms: _228  and  _229
REMARK   91  A    between atoms: _231  and  _233
REMARK   92  A    between atoms: _233  and  _234
REMARK   93  A    between atoms: _233  and  _236
REMARK   94  A    between atoms: _236  and  _237
REMARK   95  A    between atoms: _242  and  _244
REMARK   96  A    between atoms: _244  and  _245
REMARK   97  A    between atoms: _244  and  _247
REMARK   98  A    between atoms: _247  and  _248
REMARK   99  A    between atoms: _254  and  _256
REMARK  100  A    between atoms: _256  and  _257
REMARK  101  A    between atoms: _259  and  _261
REMARK  102  A    between atoms: _261  and  _262
REMARK  103  A    between atoms: _261  and  _264
REMARK  104  A    between atoms: _267  and  _269
REMARK  105  A    between atoms: _269  and  _270
REMARK  106  A    between atoms: _269  and  _272
REMARK  107  A    between atoms: _272  and  _273
REMARK  108  A    between atoms: _276  and  _278
REMARK  109  A    between atoms: _278  and  _279
REMARK  110  A    between atoms: _278  and  _281
REMARK  111  A    between atoms: _281  and  _282
REMARK  112  A    between atoms: _285  and  _287
REMARK  113  A    between atoms: _287  and  _288
REMARK  114  A    between atoms: _287  and  _290
REMARK  115  A    between atoms: _293  and  _295
REMARK  116  A    between atoms: _295  and  _296
REMARK  117  A    between atoms: _295  and  _298
REMARK  118  A    between atoms: _301  and  _303
REMARK  119  A    between atoms: _303  and  _304
REMARK  120  A    between atoms: _303  and  _306
REMARK  121  A    between atoms: _306  and  _307
REMARK  122  A    between atoms: _310  and  _312
REMARK  123  A    between atoms: _312  and  _313
REMARK  124  A    between atoms: _312  and  _315
REMARK  125  A    between atoms: _315  and  _316
REMARK  126  A    between atoms: _319  and  _321
REMARK  127  A    between atoms: _321  and  _322
REMARK  128  A    between atoms: _321  and  _324
REMARK  129  A    between atoms: _327  and  _329
REMARK  130  A    between atoms: _329  and  _330
REMARK  131  A    between atoms: _329  and  _332
REMARK  132  A    between atoms: _332  and  _333
REMARK  133  A    between atoms: _339  and  _341
REMARK  134  A    between atoms: _341  and  _342
REMARK  135  A    between atoms: _341  and  _344
REMARK  136  A    between atoms: _344  and  _345
REMARK  137  A    between atoms: _351  and  _353
REMARK  138  A    between atoms: _353  and  _354
REMARK  139  A    between atoms: _356  and  _358
REMARK  140  A    between atoms: _358  and  _359
REMARK  141  A    between atoms: _358  and  _361
REMARK  142  A    between atoms: _361  and  _362
REMARK  143  A    between atoms: _362  and  _363
REMARK  144  A    between atoms: _366  and  _368
REMARK  145  A    between atoms: _368  and  _369
REMARK  146  A    between atoms: _368  and  _371
REMARK  147  A    between atoms: _371  and  _372
REMARK  148  A    between atoms: _372  and  _373
REMARK  149  A    between atoms: _373  and  _374
REMARK  150  A    between atoms: _374  and  _375
REMARK  151  A    between atoms: _379  and  _381
REMARK  152  A    between atoms: _381  and  _382
REMARK  153  A    between atoms: _381  and  _384
REMARK  154  A    between atoms: _384  and  _385
REMARK  155  A    between atoms: _388  and  _390
REMARK  156  A    between atoms: _390  and  _391
REMARK  157  A    between atoms: _390  and  _393
REMARK  158  A    between atoms: _393  and  _394
REMARK  159  A    between atoms: _399  and  _400
REMARK  160  A    between atoms: _402  and  _404
REMARK  161  A    between atoms: _404  and  _405
REMARK  162  A    between atoms: _404  and  _407
REMARK  163  A    between atoms: _407  and  _408
REMARK  164  A    between atoms: _408  and  _409
REMARK  165  A    between atoms: _414  and  _416
REMARK  166  A    between atoms: _416  and  _417
REMARK  167  A    between atoms: _416  and  _419
REMARK  168  A    between atoms: _419  and  _420
REMARK  169  A    between atoms: _423  and  _425
REMARK  170  A    between atoms: _425  and  _426
REMARK  171  A    between atoms: _425  and  _428
REMARK  172  A    between atoms: _428  and  _429
REMARK  173  A    between atoms: _432  and  _434
REMARK  174  A    between atoms: _434  and  _435
REMARK  175  A    between atoms: _434  and  _437
REMARK  176  A    between atoms: _440  and  _442
REMARK  177  A    between atoms: _442  and  _443
REMARK  178  A    between atoms: _445  and  _447
REMARK  179  A    between atoms: _447  and  _448
REMARK  180  A    between atoms: _447  and  _450
REMARK  181  A    between atoms: _454  and  _455
REMARK  182  A    between atoms: _460  and  _462
REMARK  183  A    between atoms: _462  and  _463
REMARK  184  A    between atoms: _462  and  _465
REMARK  185  A    between atoms: _465  and  _466
REMARK  186  A    between atoms: _469  and  _471
REMARK  187  A    between atoms: _471  and  _472
REMARK  188  A    between atoms: _471  and  _474
REMARK  189  A    between atoms: _477  and  _479
REMARK  190  A    between atoms: _479  and  _480
REMARK  191  A    between atoms: _479  and  _482
REMARK  192  A    between atoms: _482  and  _483
REMARK  193  A    between atoms: _483  and  _484
REMARK  194  A    between atoms: _484  and  _485
REMARK  195  A    between atoms: _494  and  _496
REMARK  196  A    between atoms: _496  and  _497
REMARK  197  A    between atoms: _496  and  _499
REMARK  198  A    between atoms: _499  and  _500
REMARK  199  A    between atoms: _500  and  _501
REMARK  200  A    between atoms: _504  and  _506
REMARK  201  A    between atoms: _506  and  _507
REMARK  202  A    between atoms: _506  and  _509
REMARK  203  A    between atoms: _509  and  _510
REMARK  204  A    between atoms: _513  and  _515
REMARK  205  A    between atoms: _515  and  _516
REMARK  206  A    between atoms: _519  and  _521
REMARK  207  A    between atoms: _521  and  _522
REMARK  208  A    between atoms: _521  and  _524
REMARK  209  A    between atoms: _524  and  _525
REMARK  210  A    between atoms: _525  and  _526
REMARK  211  A    between atoms: _528  and  _530
REMARK  212  A    between atoms: _530  and  _531
REMARK  213  A    between atoms: _530  and  _533
REMARK  214  A    between atoms: _533  and  _534
REMARK  215  A    between atoms: _536  and  _538
REMARK  216  A    between atoms: _538  and  _539
REMARK  217  A    between atoms: _538  and  _541
REMARK  218  A    between atoms: _541  and  _542
REMARK  219  A    between atoms: _544  and  _546
REMARK  220  A    between atoms: _546  and  _547
REMARK  221  A    between atoms: _546  and  _549
REMARK  222  A    between atoms: _549  and  _550
REMARK  223  A    between atoms: _550  and  _551
REMARK  224  A    between atoms: _551  and  _552
REMARK  225  A    between atoms: _561  and  _563
REMARK  226  A    between atoms: _563  and  _564
REMARK  227  A    between atoms: _563  and  _566
REMARK  228  A    between atoms: _566  and  _567
REMARK  229  A    between atoms: _572  and  _574
REMARK  230  A    between atoms: _574  and  _575
REMARK  231  A    between atoms: _574  and  _577
REMARK  232  A    between atoms: _577  and  _578
REMARK  233  A    between atoms: _581  and  _583
REMARK  234  A    between atoms: _583  and  _584
REMARK  235  A    between atoms: _583  and  _586
REMARK  236  A    between atoms: _586  and  _587
REMARK                            x       y       z     vdW  Elec       q    Type
REMARK                         _______ _______ _______ _____ _____    ______ ____
ROOT
ATOM      1  CA  ILE A   1      10.419   0.008   7.179  0.00  0.00    +0.133 C 
ENDROOT
BRANCH   1   2
ATOM      2  N   ILE A   1      11.628  -0.631   6.668  0.00  0.00    -0.239 NA
ATOM      3  H   ILE A   1      12.084  -0.264   5.809  0.00  0.00    +0.142 HD
ENDBRANCH   1   2
BRANCH   1   4
ATOM      4  C   ILE A   1       9.243  -0.933   7.017  0.00  0.00    +0.224 C 
ATOM      5  O   ILE A   1       8.391  -0.998   7.891  0.00  0.00    -0.287 OA
ENDBRANCH   1   4
BRANCH   1   6
ATOM      6  CB  ILE A   1      10.182   1.366   6.514  0.00  0.00    +0.023 C 
ATOM      7  CG2 ILE A   1       8.864   2.026   6.997  0.00  0.00    +0.002 C 
BRANCH   6   8
ATOM      8  CG1 ILE A   1      11.381   2.292   6.830  0.00  0.00    +0.002 C 
ATOM      9  CD1 ILE A   1      11.690   2.457   8.350  0.00  0.00    +0.000 C 
ENDBRANCH   6   8
ENDBRANCH   1   6
TORSDOF 4
REMARK  Name = ../refined-set-2016/3coy/3coy_pocket.pdb
REMARK  236 active torsions:
REMARK  status: ('A' for Active; 'I' for Inactive)
REMARK    1  A    between atoms: _1  and  _3
REMARK    2  A    between atoms: _3  and  _4
REMARK    3  A    between atoms: _3  and  _6
REMARK    4  A    between atoms: _10  and  _11
REMARK    5  A    between atoms: _16  and  _18
REMARK    6  A    between atoms: _18  and  _19
REMARK    7  A    between atoms: _18  and  _21
REMARK    8  A    between atoms: _21  and  _22
REMARK    9  A    between atoms: _25  and  _27
REMARK   10  A    between atoms: _27  and  _28
REMARK   11  A    between atoms: _27  and  _30
REMARK   12  A    between atoms: _30  and  _31
REMARK   13  A    between atoms: _31  and  _32
REMARK   14  A    between atoms: _34  and  _36
REMARK   15  A    between atoms: _36  and  _37
REMARK   16  A    between atoms: _39  and  _41
REMARK   17  A    between atoms: _41  and  _42
REMARK   18  A    between atoms: _45  and  _47
REMARK   19  A    between atoms: _47  and  _48
REMARK   20  A    between atoms: _47  and  _50
REMARK   21  A    between atoms: _50  and  _51
REMARK   22  A    between atoms: _54  and  _56
REMARK   23  A    between atoms: _56  and  _57
REMARK   24  A    between atoms: _56  and  _59
REMARK   25  A    between atoms: _59  and  _60
REMARK   26  A    between atoms: _65  and  _67
REMARK   27  A    between atoms: _67  and  _68
REMARK   28  A    between atoms: _67  and  _70
REMARK   29  A    between atoms: _70  and  _71
REMARK   30  A    between atoms: _71  and  _72
REMARK   31  A    between atoms: _75  and  _77
REMARK   32  A    between atoms: _77  and  _78
REMARK   33  A    between atoms: _80  and  _82
REMARK   34  A    between atoms: _82  and  _83
REMARK   35  A    between atoms: _82  and  _85
REMARK   36  A    between atoms: _85  and  _86
REMARK   37  A    between atoms: _91  and  _93
REMARK   38  A    between atoms: _93  and  _94
REMARK   39  A    between atoms: _93  and  _96
REMARK   40  A    between atoms: _96  and  _97
REMARK   41  A    between atoms: _100  and  _102
REMARK   42  A    between atoms: _102  and  _103
REMARK   43  A    between atoms: _106  and  _108
REMARK   44  A    between atoms: _108  and  _109
REMARK   45  A    between atoms: _108  and  _111
REMARK   46  A    between atoms: _111  and  _112
REMARK   47  A    between atoms: _115  and  _117
REMARK   48  A    between atoms: _117  and  _118
REMARK   49  A    between atoms: _117  and  _120
REMARK   50  A    between atoms: _123  and  _125
REMARK   51  A    between atoms: _125  and  _126
REMARK   52  A    between atoms: _125  and  _128
REMARK   53  A    between atoms: _131  and  _133
REMARK   54  A    between atoms: _133  and  _134
REMARK   55  A    between atoms: _133  and  _136
REMARK   56  A    between atoms: _136  and  _137
REMARK   57  A    between atoms: _139  and  _141
REMARK   58  A    between atoms: _141  and  _142
REMARK   59  A    between atoms: _141  and  _144
REMARK   60  A    between atoms: _144  and  _145
REMARK   61  A    between atoms: _148  and  _150
REMARK   62  A    between atoms: _150  and  _151
REMARK   63  A    between atoms: _150  and  _153
REMARK   64  A    between atoms: _153  and  _154
REMARK   65  A    between atoms: _160  and  _162
REMARK   66  A    between atoms: _162  and  _163
REMARK   67  A    between atoms: _162  and  _165
REMARK   68  A    between atoms: _168  and  _170
REMARK   69  A    between atoms: _170  and  _171
REMARK   70  A    between atoms: _170  and  _173
REMARK   71  A    between atoms: _173  and  _174
REMARK   72  A    between atoms: _179  and  _181
REMARK   73  A    between atoms: _181  and  _182
REMARK   74  A    between atoms: _181  and  _184
REMARK   75  A    between atoms: _184  and  _185
REMARK   76  A    between atoms: _185  and  _186
REMARK   77  A    between atoms: _191  and  _193
REMARK   78  A    between atoms: _193  and  _194
REMARK   79  A    between atoms: _193  and  _196
REMARK   80  A    between atoms: _196  and  _197
REMARK   81  A    between atoms: _203  and  _205
REMARK   82  A    between atoms: _205  and  _206
REMARK   83  A    between atoms: _205  and  _208
REMARK   84  A    between atoms: _208  and  _209
REMARK   85  A    between atoms: _214  and  _215
REMARK   86  A    between atoms: _217  and  _219
REMARK   87  A    between atoms: _219  and  _220
REMARK   88  A    between atoms: _219  and  _222
REMARK   89  A    between atoms: _222  and  _223
REMARK   90  A    between atoms: _228  and  _229
REMARK   91  A    between atoms: _231  and  _233
REMARK   92  A    between atoms: _233  and  _234
REMARK   93  A    between atoms: _233  and  _236
REMARK   94  A    between atoms: _236  and  _237
REMARK   95  A    between atoms: _242  and  _244
REMARK   96  A    between atoms: _244  and  _245
REMARK   97  A    between atoms: _244  and  _247
REMARK   98  A    between atoms: _247  and  _248
REMARK   99  A    between atoms: _254  and  _256
REMARK  100  A    between atoms: _256  and  _257
REMARK  101  A    between atoms: _259  and  _261
REMARK  102  A    between atoms: _261  and  _262
REMARK  103  A    between atoms: _261  and  _264
REMARK  104  A    between atoms: _267  and  _269
REMARK  105  A    between atoms: _269  and  _270
REMARK  106  A    between atoms: _269  and  _272
REMARK  107  A    between atoms: _272  and  _273
REMARK  108  A    between atoms: _276  and  _278
REMARK  109  A    between atoms: _278  and  _279
REMARK  110  A    between atoms: _278  and  _281
REMARK  111  A    between atoms: _281  and  _282
REMARK  112  A    between atoms: _285  and  _287
REMARK  113  A    between atoms: _287  and  _288
REMARK  114  A    between atoms: _287  and  _290
REMARK  115  A    between atoms: _293  and  _295
REMARK  116  A    between atoms: _295  and  _296
REMARK  117  A    between atoms: _295  and  _298
REMARK  118  A    between atoms: _301  and  _303
REMARK  119  A    between atoms: _303  and  _304
REMARK  120  A    between atoms: _303  and  _306
REMARK  121  A    between atoms: _306  and  _307
REMARK  122  A    between atoms: _310  and  _312
REMARK  123  A    between atoms: _312  and  _313
REMARK  124  A    between atoms: _312  and  _315
REMARK  125  A    between atoms: _315  and  _316
REMARK  126  A    between atoms: _319  and  _321
REMARK  127  A    between atoms: _321  and  _322
REMARK  128  A    between atoms: _321  and  _324
REMARK  129  A    between atoms: _327  and  _329
REMARK  130  A    between atoms: _329  and  _330
REMARK  131  A    between atoms: _329  and  _332
REMARK  132  A    between atoms: _332  and  _333
REMARK  133  A    between atoms: _339  and  _341
REMARK  134  A    between atoms: _341  and  _342
REMARK  135  A    between atoms: _341  and  _344
REMARK  136  A    between atoms: _344  and  _345
REMARK  137  A    between atoms: _351  and  _353
REMARK  138  A    between atoms: _353  and  _354
REMARK  139  A    between atoms: _356  and  _358
REMARK  140  A    between atoms: _358  and  _359
REMARK  141  A    between atoms: _358  and  _361
REMARK  142  A    between atoms: _361  and  _362
REMARK  143  A    between atoms: _362  and  _363
REMARK  144  A    between atoms: _366  and  _368
REMARK  145  A    between atoms: _368  and  _369
REMARK  146  A    between atoms: _368  and  _371
REMARK  147  A    between atoms: _371  and  _372
REMARK  148  A    between atoms: _372  and  _373
REMARK  149  A    between atoms: _373  and  _374
REMARK  150  A    between atoms: _374  and  _375
REMARK  151  A    between atoms: _379  and  _381
REMARK  152  A    between atoms: _381  and  _382
REMARK  153  A    between atoms: _381  and  _384
REMARK  154  A    between atoms: _384  and  _385
REMARK  155  A    between atoms: _388  and  _390
REMARK  156  A    between atoms: _390  and  _391
REMARK  157  A    between atoms: _390  and  _393
REMARK  158  A    between atoms: _393  and  _394
REMARK  159  A    between atoms: _399  and  _400
REMARK  160  A    between atoms: _402  and  _404
REMARK  161  A    between atoms: _404  and  _405
REMARK  162  A    between atoms: _404  and  _407
REMARK  163  A    between atoms: _407  and  _408
REMARK  164  A    between atoms: _408  and  _409
REMARK  165  A    between atoms: _414  and  _416
REMARK  166  A    between atoms: _416  and  _417
REMARK  167  A    between atoms: _416  and  _419
REMARK  168  A    between atoms: _419  and  _420
REMARK  169  A    between atoms: _423  and  _425
REMARK  170  A    between atoms: _425  and  _426
REMARK  171  A    between atoms: _425  and  _428
REMARK  172  A    between atoms: _428  and  _429
REMARK  173  A    between atoms: _432  and  _434
REMARK  174  A    between atoms: _434  and  _435
REMARK  175  A    between atoms: _434  and  _437
REMARK  176  A    between atoms: _440  and  _442
REMARK  177  A    between atoms: _442  and  _443
REMARK  178  A    between atoms: _445  and  _447
REMARK  179  A    between atoms: _447  and  _448
REMARK  180  A    between atoms: _447  and  _450
REMARK  181  A    between atoms: _454  and  _455
REMARK  182  A    between atoms: _460  and  _462
REMARK  183  A    between atoms: _462  and  _463
REMARK  184  A    between atoms: _462  and  _465
REMARK  185  A    between atoms: _465  and  _466
REMARK  186  A    between atoms: _469  and  _471
REMARK  187  A    between atoms: _471  and  _472
REMARK  188  A    between atoms: _471  and  _474
REMARK  189  A    between atoms: _477  and  _479
REMARK  190  A    between atoms: _479  and  _480
REMARK  191  A    between atoms: _479  and  _482
REMARK  192  A    between atoms: _482  and  _483
REMARK  193  A    between atoms: _483  and  _484
REMARK  194  A    between atoms: _484  and  _485
REMARK  195  A    between atoms: _494  and  _496
REMARK  196  A    between atoms: _496  and  _497
REMARK  197  A    between atoms: _496  and  _499
REMARK  198  A    between atoms: _499  and  _500
REMARK  199  A    between atoms: _500  and  _501
REMARK  200  A    between atoms: _504  and  _506
REMARK  201  A    between atoms: _506  and  _507
REMARK  202  A    between atoms: _506  and  _509
REMARK  203  A    between atoms: _509  and  _510
REMARK  204  A    between atoms: _513  and  _515
REMARK  205  A    between atoms: _515  and  _516
REMARK  206  A    between atoms: _519  and  _521
REMARK  207  A    between atoms: _521  and  _522
REMARK  208  A    between atoms: _521  and  _524
REMARK  209  A    between atoms: _524  and  _525
REMARK  210  A    between atoms: _525  and  _526
REMARK  211  A    between atoms: _528  and  _530
REMARK  212  A    between atoms: _530  and  _531
REMARK  213  A    between atoms: _530  and  _533
REMARK  214  A    between atoms: _533  and  _534
REMARK  215  A    between atoms: _536  and  _538
REMARK  216  A    between atoms: _538  and  _539
REMARK  217  A    between atoms: _538  and  _541
REMARK  218  A    between atoms: _541  and  _542
REMARK  219  A    between atoms: _544  and  _546
REMARK  220  A    between atoms: _546  and  _547
REMARK  221  A    between atoms: _546  and  _549
REMARK  222  A    between atoms: _549  and  _550
REMARK  223  A    between atoms: _550  and  _551
REMARK  224  A    between atoms: _551  and  _552
REMARK  225  A    between atoms: _561  and  _563
REMARK  226  A    between atoms: _563  and  _564
REMARK  227  A    between atoms: _563  and  _566
REMARK  228  A    between atoms: _566  and  _567
REMARK  229  A    between atoms: _572  and  _574
REMARK  230  A    between atoms: _574  and  _575
REMARK  231  A    between atoms: _574  and  _577
REMARK  232  A    between atoms: _577  and  _578
REMARK  233  A    between atoms: _581  and  _583
REMARK  234  A    between atoms: _583  and  _584
REMARK  235  A    between atoms: _583  and  _586
REMARK  236  A    between atoms: _586  and  _587
REMARK                            x       y       z     vdW  Elec       q    Type
REMARK                         _______ _______ _______ _____ _____    ______ ____
ROOT
ATOM      1  C   THR A   5      13.564   8.127  -8.772  0.00  0.00    +0.243 C 
ATOM      2  N   VAL A   6      13.677   9.373  -8.327  0.00  0.00    -0.297 N 
ATOM      3  H   VAL A   6      13.744   9.553  -7.305  0.00  0.00    +0.150 HD
ATOM      4  O   THR A   5      13.390   7.866  -9.968  0.00  0.00    -0.273 OA
ENDROOT
BRANCH   2   5
ATOM      5  CA  VAL A   6      13.708  10.494  -9.265  0.00  0.00    +0.149 C 
BRANCH   5   6
ATOM      6  C   VAL A   6      15.136  10.666  -9.725  0.00  0.00    +0.241 C 
ATOM      7  O   VAL A   6      16.058  10.667  -8.894  0.00  0.00    -0.273 OA
ATOM      8  N   ARG A   7      15.316  10.797 -11.048  0.00  0.00    -0.297 N 
ATOM      9  H   ARG A   7      14.480  10.853 -11.664  0.00  0.00    +0.150 HD
BRANCH   8  10
ATOM     10  CA  ARG A   7      16.658  10.864 -11.661  0.00  0.00    +0.149 C 
BRANCH  10  11
ATOM     11  C   ARG A   7      16.886  12.169 -12.436  0.00  0.00    +0.241 C 
ATOM     12  N   GLU A   8      18.141  12.601 -12.499  0.00  0.00    -0.298 N 
ATOM     13  H   GLU A   8      18.852  12.169 -11.875  0.00  0.00    +0.150 HD
ATOM     14  O   ARG A   7      15.940  12.762 -12.951  0.00  0.00    -0.273 OA
BRANCH  12  15
ATOM     15  CA  GLU A   8      18.557  13.662 -13.414  0.00  0.00    +0.137 C 
BRANCH  15  16
ATOM     16  C   GLU A   8      18.363  13.175 -14.864  0.00  0.00    +0.227 C 
ATOM     17  O   GLU A   8      18.070  11.995 -15.083  0.00  0.00    -0.286 OA
ENDBRANCH  15  16
BRANCH  15  18
ATOM     18  CB  GLU A   8      20.017  14.061 -13.173  0.00  0.00    +0.039 C 
BRANCH  18  19
ATOM     19  CG  GLU A   8      20.411  14.278 -11.729  0.00  0.00    +0.116 C 
BRANCH  19  20
ATOM     20  CD  GLU A   8      20.272  15.719 -11.260  0.00  0.00    +0.365 C 
ATOM     21  OE2 GLU A   8      21.021  16.096 -10.326  0.00  0.00    -0.246 OA
ATOM     22  OE1 GLU A   8      19.416  16.462 -11.795  0.00  0.00    -0.246 OA
ENDBRANCH  19  20
ENDBRANCH  18  19
ENDBRANCH  15  18
ENDBRANCH  12  15
ENDBRANCH  10  11
BRANCH  10  23
ATOM     23  CB  ARG A   7      16.898   9.659 -12.594  0.00  0.00    +0.033 C 
BRANCH  23  24
ATOM     24  CG  ARG A   7      16.784   8.316 -11.868  0.00  0.00    +0.045 C 
BRANCH  24  25
ATOM     25  CD  ARG A   7      16.859   7.105 -12.791  0.00  0.00    +0.174 C 
BRANCH  25  26
ATOM     26  NE  ARG A   7      16.781   5.877 -11.996  0.00  0.00    -0.265 N 
ATOM     27  CZ  ARG A   7      17.815   5.307 -11.371  0.00  0.00    +0.342 C 
ATOM     28  NH2 ARG A   7      17.637   4.199 -10.654  0.00  0.00    -0.292 N 
ATOM     29 HH21 ARG A   7      18.444   3.758 -10.169  0.00  0.00    +0.255 HD
ATOM     30 HH22 ARG A   7      16.691   3.774 -10.579  0.00  0.00    +0.255 HD
ATOM     31  NH1 ARG A   7      19.031   5.844 -11.436  0.00  0.00    -0.292 N 
ATOM     32 HH11 ARG A   7      19.827   5.390 -10.945  0.00  0.00    +0.255 HD
ATOM     33 HH12 ARG A   7      19.185   6.718 -11.978  0.00  0.00    +0.255 HD
ATOM     34  HE  ARG A   7      15.853   5.415 -11.912  0.00  0.00    +0.259 HD
ENDBRANCH  25  26
ENDBRANCH  24  25
ENDBRANCH  23  24
ENDBRANCH  10  23
ENDBRANCH   8  10
ENDBRANCH   5   6
BRANCH   5  35
ATOM     35  CB  VAL A   6      13.184  11.802  -8.633  0.00  0.00    +0.027 C 
ATOM     36  CG2 VAL A   6      11.781  11.603  -8.165  0.00  0.00    +0.002 C 
ATOM     37  CG1 VAL A   6      13.238  12.970  -9.640  0.00  0.00    +0.002 C 
ENDBRANCH   5  35
ENDBRANCH   2   5
BRANCH   1  38
ATOM     38  CA  THR A   5      13.628   7.006  -7.721  0.00  0.00    +0.176 C 
BRANCH  38  41
ATOM     39  C   PRO A   4      11.194   6.530  -7.562  0.00  0.00    +0.241 C 
ATOM     40  O   PRO A   4      10.874   7.703  -7.271  0.00  0.00    -0.273 OA
ATOM     41  N   THR A   5      12.446   6.126  -7.804  0.00  0.00    -0.295 N 
ATOM     42  H   THR A   5      12.596   5.131  -8.067  0.00  0.00    +0.150 HD
BRANCH  39  49
ATOM     43  C   VAL A   3       9.200   5.736  -5.409  0.00  0.00    +0.244 C 
ATOM     44  O   VAL A   3      10.336   5.647  -4.898  0.00  0.00    -0.273 OA
ATOM     45  N   PRO A   4       8.987   5.612  -6.746  0.00  0.00    -0.272 N 
ATOM     46  CD  PRO A   4       7.687   5.614  -7.454  0.00  0.00    +0.094 C 
ATOM     47  CG  PRO A   4       8.036   5.029  -8.791  0.00  0.00    +0.024 C 
ATOM     48  CB  PRO A   4       9.443   5.506  -9.055  0.00  0.00    +0.031 C 
ATOM     49  CA  PRO A   4      10.114   5.442  -7.676  0.00  0.00    +0.152 C 
BRANCH  43  50
ATOM     50  CA  VAL A   3       7.967   5.937  -4.512  0.00  0.00    +0.149 C 
BRANCH  50  52
ATOM     51  C   GLY A   2       7.193   4.048  -3.206  0.00  0.00    +0.243 C 
ATOM     52  N   VAL A   3       8.093   5.005  -3.407  0.00  0.00    -0.297 N 
ATOM     53  H   VAL A   3       8.903   5.087  -2.760  0.00  0.00    +0.150 HD
ATOM     54  O   GLY A   2       6.237   3.880  -3.954  0.00  0.00    -0.273 OA
BRANCH  51  55
ATOM     55  CA  GLY A   2       7.393   3.156  -1.997  0.00  0.00    +0.176 C 
BRANCH  55  58
ATOM     56  C   VAL A   1       5.557   3.756  -0.506  0.00  0.00    +0.238 C 
ATOM     57  O   VAL A   1       6.141   4.755  -0.084  0.00  0.00    -0.274 OA
ATOM     58  N   GLY A   2       6.110   2.885  -1.348  0.00  0.00    -0.296 N 
ATOM     59  H   GLY A   2       5.618   1.991  -1.549  0.00  0.00    +0.150 HD
BRANCH  56  60
ATOM     60  CA  VAL A   1       4.143   3.457  -0.046  0.00  0.00    +0.145 C 
BRANCH  60  61
ATOM     61  CB  VAL A   1       3.267   4.701  -0.376  0.00  0.00    +0.025 C 
ATOM     62  CG2 VAL A   1       1.884   4.581   0.251  0.00  0.00    +0.002 C 
ATOM     63  CG1 VAL A   1       3.165   4.935  -1.899  0.00  0.00    +0.002 C 
ENDBRANCH  60  61
BRANCH  60  64
ATOM     64  N   VAL A   1       4.196   3.198   1.407  0.00  0.00    -0.238 NA
ATOM     65  H   VAL A   1       4.481   3.978   2.034  0.00  0.00    +0.142 HD
ENDBRANCH  60  64
ENDBRANCH  56  60
ENDBRANCH  55  58
ENDBRANCH  51  55
ENDBRANCH  50  52
BRANCH  50  66
ATOM     66  CB  VAL A   3       7.800   7.380  -3.972  0.00  0.00    +0.027 C 
ATOM     67  CG2 VAL A   3       6.628   7.427  -3.040  0.00  0.00    +0.002 C 
ATOM     68  CG1 VAL A   3       7.588   8.418  -5.077  0.00  0.00    +0.002 C 
ENDBRANCH  50  66
ENDBRANCH  43  50
ENDBRANCH  39  49
ENDBRANCH  38  41
BRANCH  38  69
ATOM     69  CB  THR A   5      14.938   6.196  -7.897  0.00  0.00    +0.137 C 
ATOM     70  CG2 THR A   5      16.171   7.100  -7.922  0.00  0.00    +0.034 C 
BRANCH  69  71
ATOM     71  OG1 THR A   5      15.079   5.265  -6.816  0.00  0.00    -0.382 OA
ATOM     72  HG1 THR A   5      15.917   4.750  -6.933  0.00  0.00    +0.210 HD
ENDBRANCH  69  71
ENDBRANCH  38  69
ENDBRANCH   1  38
TORSDOF 27
REMARK  Name = ../refined-set-2016/3coy/3coy_pocket.pdb
REMARK  236 active torsions:
REMARK  status: ('A' for Active; 'I' for Inactive)
REMARK    1  A    between atoms: _1  and  _3
REMARK    2  A    between atoms: _3  and  _4
REMARK    3  A    between atoms: _3  and  _6
REMARK    4  A    between atoms: _10  and  _11
REMARK    5  A    between atoms: _16  and  _18
REMARK    6  A    between atoms: _18  and  _19
REMARK    7  A    between atoms: _18  and  _21
REMARK    8  A    between atoms: _21  and  _22
REMARK    9  A    between atoms: _25  and  _27
REMARK   10  A    between atoms: _27  and  _28
REMARK   11  A    between atoms: _27  and  _30
REMARK   12  A    between atoms: _30  and  _31
REMARK   13  A    between atoms: _31  and  _32
REMARK   14  A    between atoms: _34  and  _36
REMARK   15  A    between atoms: _36  and  _37
REMARK   16  A    between atoms: _39  and  _41
REMARK   17  A    between atoms: _41  and  _42
REMARK   18  A    between atoms: _45  and  _47
REMARK   19  A    between atoms: _47  and  _48
REMARK   20  A    between atoms: _47  and  _50
REMARK   21  A    between atoms: _50  and  _51
REMARK   22  A    between atoms: _54  and  _56
REMARK   23  A    between atoms: _56  and  _57
REMARK   24  A    between atoms: _56  and  _59
REMARK   25  A    between atoms: _59  and  _60
REMARK   26  A    between atoms: _65  and  _67
REMARK   27  A    between atoms: _67  and  _68
REMARK   28  A    between atoms: _67  and  _70
REMARK   29  A    between atoms: _70  and  _71
REMARK   30  A    between atoms: _71  and  _72
REMARK   31  A    between atoms: _75  and  _77
REMARK   32  A    between atoms: _77  and  _78
REMARK   33  A    between atoms: _80  and  _82
REMARK   34  A    between atoms: _82  and  _83
REMARK   35  A    between atoms: _82  and  _85
REMARK   36  A    between atoms: _85  and  _86
REMARK   37  A    between atoms: _91  and  _93
REMARK   38  A    between atoms: _93  and  _94
REMARK   39  A    between atoms: _93  and  _96
REMARK   40  A    between atoms: _96  and  _97
REMARK   41  A    between atoms: _100  and  _102
REMARK   42  A    between atoms: _102  and  _103
REMARK   43  A    between atoms: _106  and  _108
REMARK   44  A    between atoms: _108  and  _109
REMARK   45  A    between atoms: _108  and  _111
REMARK   46  A    between atoms: _111  and  _112
REMARK   47  A    between atoms: _115  and  _117
REMARK   48  A    between atoms: _117  and  _118
REMARK   49  A    between atoms: _117  and  _120
REMARK   50  A    between atoms: _123  and  _125
REMARK   51  A    between atoms: _125  and  _126
REMARK   52  A    between atoms: _125  and  _128
REMARK   53  A    between atoms: _131  and  _133
REMARK   54  A    between atoms: _133  and  _134
REMARK   55  A    between atoms: _133  and  _136
REMARK   56  A    between atoms: _136  and  _137
REMARK   57  A    between atoms: _139  and  _141
REMARK   58  A    between atoms: _141  and  _142
REMARK   59  A    between atoms: _141  and  _144
REMARK   60  A    between atoms: _144  and  _145
REMARK   61  A    between atoms: _148  and  _150
REMARK   62  A    between atoms: _150  and  _151
REMARK   63  A    between atoms: _150  and  _153
REMARK   64  A    between atoms: _153  and  _154
REMARK   65  A    between atoms: _160  and  _162
REMARK   66  A    between atoms: _162  and  _163
REMARK   67  A    between atoms: _162  and  _165
REMARK   68  A    between atoms: _168  and  _170
REMARK   69  A    between atoms: _170  and  _171
REMARK   70  A    between atoms: _170  and  _173
REMARK   71  A    between atoms: _173  and  _174
REMARK   72  A    between atoms: _179  and  _181
REMARK   73  A    between atoms: _181  and  _182
REMARK   74  A    between atoms: _181  and  _184
REMARK   75  A    between atoms: _184  and  _185
REMARK   76  A    between atoms: _185  and  _186
REMARK   77  A    between atoms: _191  and  _193
REMARK   78  A    between atoms: _193  and  _194
REMARK   79  A    between atoms: _193  and  _196
REMARK   80  A    between atoms: _196  and  _197
REMARK   81  A    between atoms: _203  and  _205
REMARK   82  A    between atoms: _205  and  _206
REMARK   83  A    between atoms: _205  and  _208
REMARK   84  A    between atoms: _208  and  _209
REMARK   85  A    between atoms: _214  and  _215
REMARK   86  A    between atoms: _217  and  _219
REMARK   87  A    between atoms: _219  and  _220
REMARK   88  A    between atoms: _219  and  _222
REMARK   89  A    between atoms: _222  and  _223
REMARK   90  A    between atoms: _228  and  _229
REMARK   91  A    between atoms: _231  and  _233
REMARK   92  A    between atoms: _233  and  _234
REMARK   93  A    between atoms: _233  and  _236
REMARK   94  A    between atoms: _236  and  _237
REMARK   95  A    between atoms: _242  and  _244
REMARK   96  A    between atoms: _244  and  _245
REMARK   97  A    between atoms: _244  and  _247
REMARK   98  A    between atoms: _247  and  _248
REMARK   99  A    between atoms: _254  and  _256
REMARK  100  A    between atoms: _256  and  _257
REMARK  101  A    between atoms: _259  and  _261
REMARK  102  A    between atoms: _261  and  _262
REMARK  103  A    between atoms: _261  and  _264
REMARK  104  A    between atoms: _267  and  _269
REMARK  105  A    between atoms: _269  and  _270
REMARK  106  A    between atoms: _269  and  _272
REMARK  107  A    between atoms: _272  and  _273
REMARK  108  A    between atoms: _276  and  _278
REMARK  109  A    between atoms: _278  and  _279
REMARK  110  A    between atoms: _278  and  _281
REMARK  111  A    between atoms: _281  and  _282
REMARK  112  A    between atoms: _285  and  _287
REMARK  113  A    between atoms: _287  and  _288
REMARK  114  A    between atoms: _287  and  _290
REMARK  115  A    between atoms: _293  and  _295
REMARK  116  A    between atoms: _295  and  _296
REMARK  117  A    between atoms: _295  and  _298
REMARK  118  A    between atoms: _301  and  _303
REMARK  119  A    between atoms: _303  and  _304
REMARK  120  A    between atoms: _303  and  _306
REMARK  121  A    between atoms: _306  and  _307
REMARK  122  A    between atoms: _310  and  _312
REMARK  123  A    between atoms: _312  and  _313
REMARK  124  A    between atoms: _312  and  _315
REMARK  125  A    between atoms: _315  and  _316
REMARK  126  A    between atoms: _319  and  _321
REMARK  127  A    between atoms: _321  and  _322
REMARK  128  A    between atoms: _321  and  _324
REMARK  129  A    between atoms: _327  and  _329
REMARK  130  A    between atoms: _329  and  _330
REMARK  131  A    between atoms: _329  and  _332
REMARK  132  A    between atoms: _332  and  _333
REMARK  133  A    between atoms: _339  and  _341
REMARK  134  A    between atoms: _341  and  _342
REMARK  135  A    between atoms: _341  and  _344
REMARK  136  A    between atoms: _344  and  _345
REMARK  137  A    between atoms: _351  and  _353
REMARK  138  A    between atoms: _353  and  _354
REMARK  139  A    between atoms: _356  and  _358
REMARK  140  A    between atoms: _358  and  _359
REMARK  141  A    between atoms: _358  and  _361
REMARK  142  A    between atoms: _361  and  _362
REMARK  143  A    between atoms: _362  and  _363
REMARK  144  A    between atoms: _366  and  _368
REMARK  145  A    between atoms: _368  and  _369
REMARK  146  A    between atoms: _368  and  _371
REMARK  147  A    between atoms: _371  and  _372
REMARK  148  A    between atoms: _372  and  _373
REMARK  149  A    between atoms: _373  and  _374
REMARK  150  A    between atoms: _374  and  _375
REMARK  151  A    between atoms: _379  and  _381
REMARK  152  A    between atoms: _381  and  _382
REMARK  153  A    between atoms: _381  and  _384
REMARK  154  A    between atoms: _384  and  _385
REMARK  155  A    between atoms: _388  and  _390
REMARK  156  A    between atoms: _390  and  _391
REMARK  157  A    between atoms: _390  and  _393
REMARK  158  A    between atoms: _393  and  _394
REMARK  159  A    between atoms: _399  and  _400
REMARK  160  A    between atoms: _402  and  _404
REMARK  161  A    between atoms: _404  and  _405
REMARK  162  A    between atoms: _404  and  _407
REMARK  163  A    between atoms: _407  and  _408
REMARK  164  A    between atoms: _408  and  _409
REMARK  165  A    between atoms: _414  and  _416
REMARK  166  A    between atoms: _416  and  _417
REMARK  167  A    between atoms: _416  and  _419
REMARK  168  A    between atoms: _419  and  _420
REMARK  169  A    between atoms: _423  and  _425
REMARK  170  A    between atoms: _425  and  _426
REMARK  171  A    between atoms: _425  and  _428
REMARK  172  A    between atoms: _428  and  _429
REMARK  173  A    between atoms: _432  and  _434
REMARK  174  A    between atoms: _434  and  _435
REMARK  175  A    between atoms: _434  and  _437
REMARK  176  A    between atoms: _440  and  _442
REMARK  177  A    between atoms: _442  and  _443
REMARK  178  A    between atoms: _445  and  _447
REMARK  179  A    between atoms: _447  and  _448
REMARK  180  A    between atoms: _447  and  _450
REMARK  181  A    between atoms: _454  and  _455
REMARK  182  A    between atoms: _460  and  _462
REMARK  183  A    between atoms: _462  and  _463
REMARK  184  A    between atoms: _462  and  _465
REMARK  185  A    between atoms: _465  and  _466
REMARK  186  A    between atoms: _469  and  _471
REMARK  187  A    between atoms: _471  and  _472
REMARK  188  A    between atoms: _471  and  _474
REMARK  189  A    between atoms: _477  and  _479
REMARK  190  A    between atoms: _479  and  _480
REMARK  191  A    between atoms: _479  and  _482
REMARK  192  A    between atoms: _482  and  _483
REMARK  193  A    between atoms: _483  and  _484
REMARK  194  A    between atoms: _484  and  _485
REMARK  195  A    between atoms: _494  and  _496
REMARK  196  A    between atoms: _496  and  _497
REMARK  197  A    between atoms: _496  and  _499
REMARK  198  A    between atoms: _499  and  _500
REMARK  199  A    between atoms: _500  and  _501
REMARK  200  A    between atoms: _504  and  _506
REMARK  201  A    between atoms: _506  and  _507
REMARK  202  A    between atoms: _506  and  _509
REMARK  203  A    between atoms: _509  and  _510
REMARK  204  A    between atoms: _513  and  _515
REMARK  205  A    between atoms: _515  and  _516
REMARK  206  A    between atoms: _519  and  _521
REMARK  207  A    between atoms: _521  and  _522
REMARK  208  A    between atoms: _521  and  _524
REMARK  209  A    between atoms: _524  and  _525
REMARK  210  A    between atoms: _525  and  _526
REMARK  211  A    between atoms: _528  and  _530
REMARK  212  A    between atoms: _530  and  _531
REMARK  213  A    between atoms: _530  and  _533
REMARK  214  A    between atoms: _533  and  _534
REMARK  215  A    between atoms: _536  and  _538
REMARK  216  A    between atoms: _538  and  _539
REMARK  217  A    between atoms: _538  and  _541
REMARK  218  A    between atoms: _541  and  _542
REMARK  219  A    between atoms: _544  and  _546
REMARK  220  A    between atoms: _546  and  _547
REMARK  221  A    between atoms: _546  and  _549
REMARK  222  A    between atoms: _549  and  _550
REMARK  223  A    between atoms: _550  and  _551
REMARK  224  A    between atoms: _551  and  _552
REMARK  225  A    between atoms: _561  and  _563
REMARK  226  A    between atoms: _563  and  _564
REMARK  227  A    between atoms: _563  and  _566
REMARK  228  A    between atoms: _566  and  _567
REMARK  229  A    between atoms: _572  and  _574
REMARK  230  A    between atoms: _574  and  _575
REMARK  231  A    between atoms: _574  and  _577
REMARK  232  A    between atoms: _577  and  _578
REMARK  233  A    between atoms: _581  and  _583
REMARK  234  A    between atoms: _583  and  _584
REMARK  235  A    between atoms: _583  and  _586
REMARK  236  A    between atoms: _586  and  _587
REMARK                            x       y       z     vdW  Elec       q    Type
REMARK                         _______ _______ _______ _____ _____    ______ ____
ROOT
ATOM      1  C   SER A   4      21.275  14.295  -3.587  0.00  0.00    +0.243 C 
ATOM      2  N   SER A   5      21.134  14.689  -2.322  0.00  0.00    -0.295 N 
ATOM      3  H   SER A   5      20.520  14.140  -1.687  0.00  0.00    +0.150 HD
ATOM      4  O   SER A   4      21.874  14.957  -4.452  0.00  0.00    -0.273 OA
ENDROOT
BRANCH   2   5
ATOM      5  CA  SER A   5      21.819  15.874  -1.799  0.00  0.00    +0.178 C 
BRANCH   5   6
ATOM      6  C   SER A   5      23.333  15.665  -1.869  0.00  0.00    +0.243 C 
ATOM      7  N   ARG A   6      23.787  14.446  -1.554  0.00  0.00    -0.297 N 
ATOM      8  H   ARG A   6      23.106  13.724  -1.245  0.00  0.00    +0.150 HD
ATOM      9  O   SER A   5      24.063  16.585  -2.236  0.00  0.00    -0.273 OA
BRANCH   7  10
ATOM     10  CA  ARG A   6      25.211  14.088  -1.628  0.00  0.00    +0.149 C 
BRANCH  10  11
ATOM     11  C   ARG A   6      25.838  14.341  -3.001  0.00  0.00    +0.241 C 
ATOM     12  O   ARG A   6      27.061  14.417  -3.105  0.00  0.00    -0.273 OA
ATOM     13  N   ASN A   7      25.013  14.473  -4.041  0.00  0.00    -0.298 N 
ATOM     14  H   ASN A   7      23.991  14.343  -3.896  0.00  0.00    +0.150 HD
BRANCH  13  15
ATOM     15  CA  ASN A   7      25.507  14.796  -5.381  0.00  0.00    +0.146 C 
BRANCH  15  16
ATOM     16  C   ASN A   7      26.252  16.120  -5.407  0.00  0.00    +0.227 C 
ATOM     17  O   ASN A   7      27.216  16.267  -6.161  0.00  0.00    -0.286 OA
ENDBRANCH  15  16
BRANCH  15  18
ATOM     18  CB  ASN A   7      24.381  14.857  -6.430  0.00  0.00    +0.112 C 
BRANCH  18  19
ATOM     19  CG  ASN A   7      23.780  13.478  -6.760  0.00  0.00    +0.222 C 
ATOM     20  OD1 ASN A   7      24.306  12.445  -6.363  0.00  0.00    -0.275 OA
ATOM     21  ND2 ASN A   7      22.674  13.475  -7.497  0.00  0.00    -0.329 N 
ATOM     22 HD21 ASN A   7      22.224  12.574  -7.756  0.00  0.00    +0.145 HD
ATOM     23 HD22 ASN A   7      22.258  14.374  -7.814  0.00  0.00    +0.145 HD
ENDBRANCH  18  19
ENDBRANCH  15  18
ENDBRANCH  13  15
ENDBRANCH  10  11
BRANCH  10  24
ATOM     24  CB  ARG A   6      25.440  12.628  -1.218  0.00  0.00    +0.033 C 
BRANCH  24  25
ATOM     25  CG  ARG A   6      25.939  12.416   0.211  0.00  0.00    +0.045 C 
BRANCH  25  26
ATOM     26  CD  ARG A   6      25.253  11.206   0.830  0.00  0.00    +0.174 C 
BRANCH  26  27
ATOM     27  NE  ARG A   6      26.195  10.211   1.353  0.00  0.00    -0.265 N 
ATOM     28  CZ  ARG A   6      25.889   8.931   1.578  0.00  0.00    +0.342 C 
ATOM     29  NH2 ARG A   6      26.808   8.098   2.047  0.00  0.00    -0.292 N 
ATOM     30 HH21 ARG A   6      27.770   8.441   2.241  0.00  0.00    +0.255 HD
ATOM     31 HH22 ARG A   6      26.566   7.102   2.221  0.00  0.00    +0.255 HD
ATOM     32  NH1 ARG A   6      24.666   8.476   1.335  0.00  0.00    -0.292 N 
ATOM     33 HH11 ARG A   6      24.438   7.477   1.514  0.00  0.00    +0.255 HD
ATOM     34 HH12 ARG A   6      23.936   9.118   0.966  0.00  0.00    +0.255 HD
ATOM     35  HE  ARG A   6      27.165  10.523   1.562  0.00  0.00    +0.259 HD
ENDBRANCH  26  27
ENDBRANCH  25  26
ENDBRANCH  24  25
ENDBRANCH  10  24
ENDBRANCH   7  10
ENDBRANCH   5   6
BRANCH   5  36
ATOM     36  CB  SER A   5      21.384  16.173  -0.357  0.00  0.00    +0.166 C 
BRANCH  36  37
ATOM     37  OG  SER A   5      20.002  16.507  -0.287  0.00  0.00    -0.380 OA
ATOM     38  H   SER A   5      19.756  16.693   0.654  0.00  0.00    +0.211 HD
ENDBRANCH  36  37
ENDBRANCH   5  36
ENDBRANCH   2   5
BRANCH   1  39
ATOM     39  CA  SER A   4      20.645  12.951  -3.942  0.00  0.00    +0.178 C 
BRANCH  39  42
ATOM     40  C   MET A   3      19.218  12.374  -5.830  0.00  0.00    +0.241 C 
ATOM     41  O   MET A   3      18.515  11.592  -5.161  0.00  0.00    -0.273 OA
ATOM     42  N   SER A   4      20.248  13.039  -5.330  0.00  0.00    -0.295 N 
ATOM     43  H   SER A   4      20.797  13.653  -5.965  0.00  0.00    +0.150 HD
BRANCH  40  44
ATOM     44  CA  MET A   3      18.965  12.623  -7.316  0.00  0.00    +0.149 C 
BRANCH  44  47
ATOM     45  C   ALA A   2      19.962  10.571  -8.175  0.00  0.00    +0.241 C 
ATOM     46  O   ALA A   2      21.049  10.816  -7.650  0.00  0.00    -0.273 OA
ATOM     47  N   MET A   3      18.912  11.375  -8.084  0.00  0.00    -0.297 N 
ATOM     48  H   MET A   3      18.030  11.114  -8.569  0.00  0.00    +0.150 HD
BRANCH  45  49
ATOM     49  CA  ALA A   2      19.769   9.291  -8.971  0.00  0.00    +0.149 C 
ATOM     50  CB  ALA A   2      19.872   8.089  -8.064  0.00  0.00    +0.031 C 
BRANCH  49  52
ATOM     51  C   LEU A   1      20.785  10.141 -11.030  0.00  0.00    +0.238 C 
ATOM     52  N   ALA A   2      20.785   9.241 -10.040  0.00  0.00    -0.297 N 
ATOM     53  H   ALA A   2      21.511   8.496 -10.024  0.00  0.00    +0.150 HD
ATOM     54  O   LEU A   1      19.956  11.053 -11.109  0.00  0.00    -0.274 OA
BRANCH  51  55
ATOM     55  CA  LEU A   1      21.894  10.023 -12.088  0.00  0.00    +0.145 C 
BRANCH  55  56
ATOM     56  N   LEU A   1      21.336   9.917 -13.438  0.00  0.00    -0.238 NA
ATOM     57  H   LEU A   1      21.607  10.612 -14.163  0.00  0.00    +0.142 HD
ENDBRANCH  55  56
BRANCH  55  58
ATOM     58  CB  LEU A   1      22.851  11.217 -11.966  0.00  0.00    +0.026 C 
BRANCH  58  59
ATOM     59  CG  LEU A   1      23.495  11.380 -10.581  0.00  0.00    +0.002 C 
ATOM     60  CD2 LEU A   1      24.457  10.262 -10.259  0.00  0.00    +0.000 C 
ATOM     61  CD1 LEU A   1      24.217  12.711 -10.451  0.00  0.00    +0.000 C 
ENDBRANCH  58  59
ENDBRANCH  55  58
ENDBRANCH  51  55
ENDBRANCH  49  52
ENDBRANCH  45  49
ENDBRANCH  44  47
BRANCH  44  62
ATOM     62  CB  MET A   3      17.691  13.439  -7.495  0.00  0.00    +0.041 C 
BRANCH  62  63
ATOM     63  CG  MET A   3      17.735  14.416  -8.625  0.00  0.00    +0.060 C 
BRANCH  63  64
ATOM     64  SD  MET A   3      16.172  15.300  -8.764  0.00  0.00    -0.139 S 
ATOM     65  CE  MET A   3      16.286  15.905 -10.443  0.00  0.00    +0.069 C 
ENDBRANCH  63  64
ENDBRANCH  62  63
ENDBRANCH  44  62
ENDBRANCH  40  44
ENDBRANCH  39  42
BRANCH  39  66
ATOM     66  CB  SER A   4      21.671  11.827  -3.749  0.00  0.00    +0.166 C 
BRANCH  66  67
ATOM     67  OG  SER A   4      22.047  11.691  -2.386  0.00  0.00    -0.380 OA
ATOM     68  H   SER A   4      22.708  10.959  -2.299  0.00  0.00    +0.211 HD
ENDBRANCH  66  67
ENDBRANCH  39  66
ENDBRANCH   1  39
TORSDOF 29
REMARK  Name = ../refined-set-2016/3coy/3coy_pocket.pdb
REMARK  236 active torsions:
REMARK  status: ('A' for Active; 'I' for Inactive)
REMARK    1  A    between atoms: _1  and  _3
REMARK    2  A    between atoms: _3  and  _4
REMARK    3  A    between atoms: _3  and  _6
REMARK    4  A    between atoms: _10  and  _11
REMARK    5  A    between atoms: _16  and  _18
REMARK    6  A    between atoms: _18  and  _19
REMARK    7  A    between atoms: _18  and  _21
REMARK    8  A    between atoms: _21  and  _22
REMARK    9  A    between atoms: _25  and  _27
REMARK   10  A    between atoms: _27  and  _28
REMARK   11  A    between atoms: _27  and  _30
REMARK   12  A    between atoms: _30  and  _31
REMARK   13  A    between atoms: _31  and  _32
REMARK   14  A    between atoms: _34  and  _36
REMARK   15  A    between atoms: _36  and  _37
REMARK   16  A    between atoms: _39  and  _41
REMARK   17  A    between atoms: _41  and  _42
REMARK   18  A    between atoms: _45  and  _47
REMARK   19  A    between atoms: _47  and  _48
REMARK   20  A    between atoms: _47  and  _50
REMARK   21  A    between atoms: _50  and  _51
REMARK   22  A    between atoms: _54  and  _56
REMARK   23  A    between atoms: _56  and  _57
REMARK   24  A    between atoms: _56  and  _59
REMARK   25  A    between atoms: _59  and  _60
REMARK   26  A    between atoms: _65  and  _67
REMARK   27  A    between atoms: _67  and  _68
REMARK   28  A    between atoms: _67  and  _70
REMARK   29  A    between atoms: _70  and  _71
REMARK   30  A    between atoms: _71  and  _72
REMARK   31  A    between atoms: _75  and  _77
REMARK   32  A    between atoms: _77  and  _78
REMARK   33  A    between atoms: _80  and  _82
REMARK   34  A    between atoms: _82  and  _83
REMARK   35  A    between atoms: _82  and  _85
REMARK   36  A    between atoms: _85  and  _86
REMARK   37  A    between atoms: _91  and  _93
REMARK   38  A    between atoms: _93  and  _94
REMARK   39  A    between atoms: _93  and  _96
REMARK   40  A    between atoms: _96  and  _97
REMARK   41  A    between atoms: _100  and  _102
REMARK   42  A    between atoms: _102  and  _103
REMARK   43  A    between atoms: _106  and  _108
REMARK   44  A    between atoms: _108  and  _109
REMARK   45  A    between atoms: _108  and  _111
REMARK   46  A    between atoms: _111  and  _112
REMARK   47  A    between atoms: _115  and  _117
REMARK   48  A    between atoms: _117  and  _118
REMARK   49  A    between atoms: _117  and  _120
REMARK   50  A    between atoms: _123  and  _125
REMARK   51  A    between atoms: _125  and  _126
REMARK   52  A    between atoms: _125  and  _128
REMARK   53  A    between atoms: _131  and  _133
REMARK   54  A    between atoms: _133  and  _134
REMARK   55  A    between atoms: _133  and  _136
REMARK   56  A    between atoms: _136  and  _137
REMARK   57  A    between atoms: _139  and  _141
REMARK   58  A    between atoms: _141  and  _142
REMARK   59  A    between atoms: _141  and  _144
REMARK   60  A    between atoms: _144  and  _145
REMARK   61  A    between atoms: _148  and  _150
REMARK   62  A    between atoms: _150  and  _151
REMARK   63  A    between atoms: _150  and  _153
REMARK   64  A    between atoms: _153  and  _154
REMARK   65  A    between atoms: _160  and  _162
REMARK   66  A    between atoms: _162  and  _163
REMARK   67  A    between atoms: _162  and  _165
REMARK   68  A    between atoms: _168  and  _170
REMARK   69  A    between atoms: _170  and  _171
REMARK   70  A    between atoms: _170  and  _173
REMARK   71  A    between atoms: _173  and  _174
REMARK   72  A    between atoms: _179  and  _181
REMARK   73  A    between atoms: _181  and  _182
REMARK   74  A    between atoms: _181  and  _184
REMARK   75  A    between atoms: _184  and  _185
REMARK   76  A    between atoms: _185  and  _186
REMARK   77  A    between atoms: _191  and  _193
REMARK   78  A    between atoms: _193  and  _194
REMARK   79  A    between atoms: _193  and  _196
REMARK   80  A    between atoms: _196  and  _197
REMARK   81  A    between atoms: _203  and  _205
REMARK   82  A    between atoms: _205  and  _206
REMARK   83  A    between atoms: _205  and  _208
REMARK   84  A    between atoms: _208  and  _209
REMARK   85  A    between atoms: _214  and  _215
REMARK   86  A    between atoms: _217  and  _219
REMARK   87  A    between atoms: _219  and  _220
REMARK   88  A    between atoms: _219  and  _222
REMARK   89  A    between atoms: _222  and  _223
REMARK   90  A    between atoms: _228  and  _229
REMARK   91  A    between atoms: _231  and  _233
REMARK   92  A    between atoms: _233  and  _234
REMARK   93  A    between atoms: _233  and  _236
REMARK   94  A    between atoms: _236  and  _237
REMARK   95  A    between atoms: _242  and  _244
REMARK   96  A    between atoms: _244  and  _245
REMARK   97  A    between atoms: _244  and  _247
REMARK   98  A    between atoms: _247  and  _248
REMARK   99  A    between atoms: _254  and  _256
REMARK  100  A    between atoms: _256  and  _257
REMARK  101  A    between atoms: _259  and  _261
REMARK  102  A    between atoms: _261  and  _262
REMARK  103  A    between atoms: _261  and  _264
REMARK  104  A    between atoms: _267  and  _269
REMARK  105  A    between atoms: _269  and  _270
REMARK  106  A    between atoms: _269  and  _272
REMARK  107  A    between atoms: _272  and  _273
REMARK  108  A    between atoms: _276  and  _278
REMARK  109  A    between atoms: _278  and  _279
REMARK  110  A    between atoms: _278  and  _281
REMARK  111  A    between atoms: _281  and  _282
REMARK  112  A    between atoms: _285  and  _287
REMARK  113  A    between atoms: _287  and  _288
REMARK  114  A    between atoms: _287  and  _290
REMARK  115  A    between atoms: _293  and  _295
REMARK  116  A    between atoms: _295  and  _296
REMARK  117  A    between atoms: _295  and  _298
REMARK  118  A    between atoms: _301  and  _303
REMARK  119  A    between atoms: _303  and  _304
REMARK  120  A    between atoms: _303  and  _306
REMARK  121  A    between atoms: _306  and  _307
REMARK  122  A    between atoms: _310  and  _312
REMARK  123  A    between atoms: _312  and  _313
REMARK  124  A    between atoms: _312  and  _315
REMARK  125  A    between atoms: _315  and  _316
REMARK  126  A    between atoms: _319  and  _321
REMARK  127  A    between atoms: _321  and  _322
REMARK  128  A    between atoms: _321  and  _324
REMARK  129  A    between atoms: _327  and  _329
REMARK  130  A    between atoms: _329  and  _330
REMARK  131  A    between atoms: _329  and  _332
REMARK  132  A    between atoms: _332  and  _333
REMARK  133  A    between atoms: _339  and  _341
REMARK  134  A    between atoms: _341  and  _342
REMARK  135  A    between atoms: _341  and  _344
REMARK  136  A    between atoms: _344  and  _345
REMARK  137  A    between atoms: _351  and  _353
REMARK  138  A    between atoms: _353  and  _354
REMARK  139  A    between atoms: _356  and  _358
REMARK  140  A    between atoms: _358  and  _359
REMARK  141  A    between atoms: _358  and  _361
REMARK  142  A    between atoms: _361  and  _362
REMARK  143  A    between atoms: _362  and  _363
REMARK  144  A    between atoms: _366  and  _368
REMARK  145  A    between atoms: _368  and  _369
REMARK  146  A    between atoms: _368  and  _371
REMARK  147  A    between atoms: _371  and  _372
REMARK  148  A    between atoms: _372  and  _373
REMARK  149  A    between atoms: _373  and  _374
REMARK  150  A    between atoms: _374  and  _375
REMARK  151  A    between atoms: _379  and  _381
REMARK  152  A    between atoms: _381  and  _382
REMARK  153  A    between atoms: _381  and  _384
REMARK  154  A    between atoms: _384  and  _385
REMARK  155  A    between atoms: _388  and  _390
REMARK  156  A    between atoms: _390  and  _391
REMARK  157  A    between atoms: _390  and  _393
REMARK  158  A    between atoms: _393  and  _394
REMARK  159  A    between atoms: _399  and  _400
REMARK  160  A    between atoms: _402  and  _404
REMARK  161  A    between atoms: _404  and  _405
REMARK  162  A    between atoms: _404  and  _407
REMARK  163  A    between atoms: _407  and  _408
REMARK  164  A    between atoms: _408  and  _409
REMARK  165  A    between atoms: _414  and  _416
REMARK  166  A    between atoms: _416  and  _417
REMARK  167  A    between atoms: _416  and  _419
REMARK  168  A    between atoms: _419  and  _420
REMARK  169  A    between atoms: _423  and  _425
REMARK  170  A    between atoms: _425  and  _426
REMARK  171  A    between atoms: _425  and  _428
REMARK  172  A    between atoms: _428  and  _429
REMARK  173  A    between atoms: _432  and  _434
REMARK  174  A    between atoms: _434  and  _435
REMARK  175  A    between atoms: _434  and  _437
REMARK  176  A    between atoms: _440  and  _442
REMARK  177  A    between atoms: _442  and  _443
REMARK  178  A    between atoms: _445  and  _447
REMARK  179  A    between atoms: _447  and  _448
REMARK  180  A    between atoms: _447  and  _450
REMARK  181  A    between atoms: _454  and  _455
REMARK  182  A    between atoms: _460  and  _462
REMARK  183  A    between atoms: _462  and  _463
REMARK  184  A    between atoms: _462  and  _465
REMARK  185  A    between atoms: _465  and  _466
REMARK  186  A    between atoms: _469  and  _471
REMARK  187  A    between atoms: _471  and  _472
REMARK  188  A    between atoms: _471  and  _474
REMARK  189  A    between atoms: _477  and  _479
REMARK  190  A    between atoms: _479  and  _480
REMARK  191  A    between atoms: _479  and  _482
REMARK  192  A    between atoms: _482  and  _483
REMARK  193  A    between atoms: _483  and  _484
REMARK  194  A    between atoms: _484  and  _485
REMARK  195  A    between atoms: _494  and  _496
REMARK  196  A    between atoms: _496  and  _497
REMARK  197  A    between atoms: _496  and  _499
REMARK  198  A    between atoms: _499  and  _500
REMARK  199  A    between atoms: _500  and  _501
REMARK  200  A    between atoms: _504  and  _506
REMARK  201  A    between atoms: _506  and  _507
REMARK  202  A    between atoms: _506  and  _509
REMARK  203  A    between atoms: _509  and  _510
REMARK  204  A    between atoms: _513  and  _515
REMARK  205  A    between atoms: _515  and  _516
REMARK  206  A    between atoms: _519  and  _521
REMARK  207  A    between atoms: _521  and  _522
REMARK  208  A    between atoms: _521  and  _524
REMARK  209  A    between atoms: _524  and  _525
REMARK  210  A    between atoms: _525  and  _526
REMARK  211  A    between atoms: _528  and  _530
REMARK  212  A    between atoms: _530  and  _531
REMARK  213  A    between atoms: _530  and  _533
REMARK  214  A    between atoms: _533  and  _534
REMARK  215  A    between atoms: _536  and  _538
REMARK  216  A    between atoms: _538  and  _539
REMARK  217  A    between atoms: _538  and  _541
REMARK  218  A    between atoms: _541  and  _542
REMARK  219  A    between atoms: _544  and  _546
REMARK  220  A    between atoms: _546  and  _547
REMARK  221  A    between atoms: _546  and  _549
REMARK  222  A    between atoms: _549  and  _550
REMARK  223  A    between atoms: _550  and  _551
REMARK  224  A    between atoms: _551  and  _552
REMARK  225  A    between atoms: _561  and  _563
REMARK  226  A    between atoms: _563  and  _564
REMARK  227  A    between atoms: _563  and  _566
REMARK  228  A    between atoms: _566  and  _567
REMARK  229  A    between atoms: _572  and  _574
REMARK  230  A    between atoms: _574  and  _575
REMARK  231  A    between atoms: _574  and  _577
REMARK  232  A    between atoms: _577  and  _578
REMARK  233  A    between atoms: _581  and  _583
REMARK  234  A    between atoms: _583  and  _584
REMARK  235  A    between atoms: _583  and  _586
REMARK  236  A    between atoms: _586  and  _587
REMARK                            x       y       z     vdW  Elec       q    Type
REMARK                         _______ _______ _______ _____ _____    ______ ____
ROOT
ATOM      1  CA  LEU A   1      23.871   4.610  -4.050  0.00  0.00    +0.133 C 
ENDROOT
BRANCH   1   2
ATOM      2  N   LEU A   1      24.614   5.865  -3.993  0.00  0.00    -0.239 NA
ATOM      3  H   LEU A   1      24.093   6.761  -3.909  0.00  0.00    +0.142 HD
ENDBRANCH   1   2
BRANCH   1   4
ATOM      4  C   LEU A   1      22.935   4.646  -5.221  0.00  0.00    +0.224 C 
ATOM      5  O   LEU A   1      22.442   5.717  -5.604  0.00  0.00    -0.287 OA
ENDBRANCH   1   4
BRANCH   1   6
ATOM      6  CB  LEU A   1      23.009   4.407  -2.798  0.00  0.00    +0.025 C 
BRANCH   6   7
ATOM      7  CG  LEU A   1      23.506   4.692  -1.391  0.00  0.00    +0.002 C 
ATOM      8  CD2 LEU A   1      22.459   4.171  -0.401  0.00  0.00    +0.000 C 
ATOM      9  CD1 LEU A   1      24.846   4.021  -1.158  0.00  0.00    +0.000 C 
ENDBRANCH   6   7
ENDBRANCH   1   6
TORSDOF 4
REMARK  Name = ../refined-set-2016/3coy/3coy_pocket.pdb
REMARK  236 active torsions:
REMARK  status: ('A' for Active; 'I' for Inactive)
REMARK    1  A    between atoms: _1  and  _3
REMARK    2  A    between atoms: _3  and  _4
REMARK    3  A    between atoms: _3  and  _6
REMARK    4  A    between atoms: _10  and  _11
REMARK    5  A    between atoms: _16  and  _18
REMARK    6  A    between atoms: _18  and  _19
REMARK    7  A    between atoms: _18  and  _21
REMARK    8  A    between atoms: _21  and  _22
REMARK    9  A    between atoms: _25  and  _27
REMARK   10  A    between atoms: _27  and  _28
REMARK   11  A    between atoms: _27  and  _30
REMARK   12  A    between atoms: _30  and  _31
REMARK   13  A    between atoms: _31  and  _32
REMARK   14  A    between atoms: _34  and  _36
REMARK   15  A    between atoms: _36  and  _37
REMARK   16  A    between atoms: _39  and  _41
REMARK   17  A    between atoms: _41  and  _42
REMARK   18  A    between atoms: _45  and  _47
REMARK   19  A    between atoms: _47  and  _48
REMARK   20  A    between atoms: _47  and  _50
REMARK   21  A    between atoms: _50  and  _51
REMARK   22  A    between atoms: _54  and  _56
REMARK   23  A    between atoms: _56  and  _57
REMARK   24  A    between atoms: _56  and  _59
REMARK   25  A    between atoms: _59  and  _60
REMARK   26  A    between atoms: _65  and  _67
REMARK   27  A    between atoms: _67  and  _68
REMARK   28  A    between atoms: _67  and  _70
REMARK   29  A    between atoms: _70  and  _71
REMARK   30  A    between atoms: _71  and  _72
REMARK   31  A    between atoms: _75  and  _77
REMARK   32  A    between atoms: _77  and  _78
REMARK   33  A    between atoms: _80  and  _82
REMARK   34  A    between atoms: _82  and  _83
REMARK   35  A    between atoms: _82  and  _85
REMARK   36  A    between atoms: _85  and  _86
REMARK   37  A    between atoms: _91  and  _93
REMARK   38  A    between atoms: _93  and  _94
REMARK   39  A    between atoms: _93  and  _96
REMARK   40  A    between atoms: _96  and  _97
REMARK   41  A    between atoms: _100  and  _102
REMARK   42  A    between atoms: _102  and  _103
REMARK   43  A    between atoms: _106  and  _108
REMARK   44  A    between atoms: _108  and  _109
REMARK   45  A    between atoms: _108  and  _111
REMARK   46  A    between atoms: _111  and  _112
REMARK   47  A    between atoms: _115  and  _117
REMARK   48  A    between atoms: _117  and  _118
REMARK   49  A    between atoms: _117  and  _120
REMARK   50  A    between atoms: _123  and  _125
REMARK   51  A    between atoms: _125  and  _126
REMARK   52  A    between atoms: _125  and  _128
REMARK   53  A    between atoms: _131  and  _133
REMARK   54  A    between atoms: _133  and  _134
REMARK   55  A    between atoms: _133  and  _136
REMARK   56  A    between atoms: _136  and  _137
REMARK   57  A    between atoms: _139  and  _141
REMARK   58  A    between atoms: _141  and  _142
REMARK   59  A    between atoms: _141  and  _144
REMARK   60  A    between atoms: _144  and  _145
REMARK   61  A    between atoms: _148  and  _150
REMARK   62  A    between atoms: _150  and  _151
REMARK   63  A    between atoms: _150  and  _153
REMARK   64  A    between atoms: _153  and  _154
REMARK   65  A    between atoms: _160  and  _162
REMARK   66  A    between atoms: _162  and  _163
REMARK   67  A    between atoms: _162  and  _165
REMARK   68  A    between atoms: _168  and  _170
REMARK   69  A    between atoms: _170  and  _171
REMARK   70  A    between atoms: _170  and  _173
REMARK   71  A    between atoms: _173  and  _174
REMARK   72  A    between atoms: _179  and  _181
REMARK   73  A    between atoms: _181  and  _182
REMARK   74  A    between atoms: _181  and  _184
REMARK   75  A    between atoms: _184  and  _185
REMARK   76  A    between atoms: _185  and  _186
REMARK   77  A    between atoms: _191  and  _193
REMARK   78  A    between atoms: _193  and  _194
REMARK   79  A    between atoms: _193  and  _196
REMARK   80  A    between atoms: _196  and  _197
REMARK   81  A    between atoms: _203  and  _205
REMARK   82  A    between atoms: _205  and  _206
REMARK   83  A    between atoms: _205  and  _208
REMARK   84  A    between atoms: _208  and  _209
REMARK   85  A    between atoms: _214  and  _215
REMARK   86  A    between atoms: _217  and  _219
REMARK   87  A    between atoms: _219  and  _220
REMARK   88  A    between atoms: _219  and  _222
REMARK   89  A    between atoms: _222  and  _223
REMARK   90  A    between atoms: _228  and  _229
REMARK   91  A    between atoms: _231  and  _233
REMARK   92  A    between atoms: _233  and  _234
REMARK   93  A    between atoms: _233  and  _236
REMARK   94  A    between atoms: _236  and  _237
REMARK   95  A    between atoms: _242  and  _244
REMARK   96  A    between atoms: _244  and  _245
REMARK   97  A    between atoms: _244  and  _247
REMARK   98  A    between atoms: _247  and  _248
REMARK   99  A    between atoms: _254  and  _256
REMARK  100  A    between atoms: _256  and  _257
REMARK  101  A    between atoms: _259  and  _261
REMARK  102  A    between atoms: _261  and  _262
REMARK  103  A    between atoms: _261  and  _264
REMARK  104  A    between atoms: _267  and  _269
REMARK  105  A    between atoms: _269  and  _270
REMARK  106  A    between atoms: _269  and  _272
REMARK  107  A    between atoms: _272  and  _273
REMARK  108  A    between atoms: _276  and  _278
REMARK  109  A    between atoms: _278  and  _279
REMARK  110  A    between atoms: _278  and  _281
REMARK  111  A    between atoms: _281  and  _282
REMARK  112  A    between atoms: _285  and  _287
REMARK  113  A    between atoms: _287  and  _288
REMARK  114  A    between atoms: _287  and  _290
REMARK  115  A    between atoms: _293  and  _295
REMARK  116  A    between atoms: _295  and  _296
REMARK  117  A    between atoms: _295  and  _298
REMARK  118  A    between atoms: _301  and  _303
REMARK  119  A    between atoms: _303  and  _304
REMARK  120  A    between atoms: _303  and  _306
REMARK  121  A    between atoms: _306  and  _307
REMARK  122  A    between atoms: _310  and  _312
REMARK  123  A    between atoms: _312  and  _313
REMARK  124  A    between atoms: _312  and  _315
REMARK  125  A    between atoms: _315  and  _316
REMARK  126  A    between atoms: _319  and  _321
REMARK  127  A    between atoms: _321  and  _322
REMARK  128  A    between atoms: _321  and  _324
REMARK  129  A    between atoms: _327  and  _329
REMARK  130  A    between atoms: _329  and  _330
REMARK  131  A    between atoms: _329  and  _332
REMARK  132  A    between atoms: _332  and  _333
REMARK  133  A    between atoms: _339  and  _341
REMARK  134  A    between atoms: _341  and  _342
REMARK  135  A    between atoms: _341  and  _344
REMARK  136  A    between atoms: _344  and  _345
REMARK  137  A    between atoms: _351  and  _353
REMARK  138  A    between atoms: _353  and  _354
REMARK  139  A    between atoms: _356  and  _358
REMARK  140  A    between atoms: _358  and  _359
REMARK  141  A    between atoms: _358  and  _361
REMARK  142  A    between atoms: _361  and  _362
REMARK  143  A    between atoms: _362  and  _363
REMARK  144  A    between atoms: _366  and  _368
REMARK  145  A    between atoms: _368  and  _369
REMARK  146  A    between atoms: _368  and  _371
REMARK  147  A    between atoms: _371  and  _372
REMARK  148  A    between atoms: _372  and  _373
REMARK  149  A    between atoms: _373  and  _374
REMARK  150  A    between atoms: _374  and  _375
REMARK  151  A    between atoms: _379  and  _381
REMARK  152  A    between atoms: _381  and  _382
REMARK  153  A    between atoms: _381  and  _384
REMARK  154  A    between atoms: _384  and  _385
REMARK  155  A    between atoms: _388  and  _390
REMARK  156  A    between atoms: _390  and  _391
REMARK  157  A    between atoms: _390  and  _393
REMARK  158  A    between atoms: _393  and  _394
REMARK  159  A    between atoms: _399  and  _400
REMARK  160  A    between atoms: _402  and  _404
REMARK  161  A    between atoms: _404  and  _405
REMARK  162  A    between atoms: _404  and  _407
REMARK  163  A    between atoms: _407  and  _408
REMARK  164  A    between atoms: _408  and  _409
REMARK  165  A    between atoms: _414  and  _416
REMARK  166  A    between atoms: _416  and  _417
REMARK  167  A    between atoms: _416  and  _419
REMARK  168  A    between atoms: _419  and  _420
REMARK  169  A    between atoms: _423  and  _425
REMARK  170  A    between atoms: _425  and  _426
REMARK  171  A    between atoms: _425  and  _428
REMARK  172  A    between atoms: _428  and  _429
REMARK  173  A    between atoms: _432  and  _434
REMARK  174  A    between atoms: _434  and  _435
REMARK  175  A    between atoms: _434  and  _437
REMARK  176  A    between atoms: _440  and  _442
REMARK  177  A    between atoms: _442  and  _443
REMARK  178  A    between atoms: _445  and  _447
REMARK  179  A    between atoms: _447  and  _448
REMARK  180  A    between atoms: _447  and  _450
REMARK  181  A    between atoms: _454  and  _455
REMARK  182  A    between atoms: _460  and  _462
REMARK  183  A    between atoms: _462  and  _463
REMARK  184  A    between atoms: _462  and  _465
REMARK  185  A    between atoms: _465  and  _466
REMARK  186  A    between atoms: _469  and  _471
REMARK  187  A    between atoms: _471  and  _472
REMARK  188  A    between atoms: _471  and  _474
REMARK  189  A    between atoms: _477  and  _479
REMARK  190  A    between atoms: _479  and  _480
REMARK  191  A    between atoms: _479  and  _482
REMARK  192  A    between atoms: _482  and  _483
REMARK  193  A    between atoms: _483  and  _484
REMARK  194  A    between atoms: _484  and  _485
REMARK  195  A    between atoms: _494  and  _496
REMARK  196  A    between atoms: _496  and  _497
REMARK  197  A    between atoms: _496  and  _499
REMARK  198  A    between atoms: _499  and  _500
REMARK  199  A    between atoms: _500  and  _501
REMARK  200  A    between atoms: _504  and  _506
REMARK  201  A    between atoms: _506  and  _507
REMARK  202  A    between atoms: _506  and  _509
REMARK  203  A    between atoms: _509  and  _510
REMARK  204  A    between atoms: _513  and  _515
REMARK  205  A    between atoms: _515  and  _516
REMARK  206  A    between atoms: _519  and  _521
REMARK  207  A    between atoms: _521  and  _522
REMARK  208  A    between atoms: _521  and  _524
REMARK  209  A    between atoms: _524  and  _525
REMARK  210  A    between atoms: _525  and  _526
REMARK  211  A    between atoms: _528  and  _530
REMARK  212  A    between atoms: _530  and  _531
REMARK  213  A    between atoms: _530  and  _533
REMARK  214  A    between atoms: _533  and  _534
REMARK  215  A    between atoms: _536  and  _538
REMARK  216  A    between atoms: _538  and  _539
REMARK  217  A    between atoms: _538  and  _541
REMARK  218  A    between atoms: _541  and  _542
REMARK  219  A    between atoms: _544  and  _546
REMARK  220  A    between atoms: _546  and  _547
REMARK  221  A    between atoms: _546  and  _549
REMARK  222  A    between atoms: _549  and  _550
REMARK  223  A    between atoms: _550  and  _551
REMARK  224  A    between atoms: _551  and  _552
REMARK  225  A    between atoms: _561  and  _563
REMARK  226  A    between atoms: _563  and  _564
REMARK  227  A    between atoms: _563  and  _566
REMARK  228  A    between atoms: _566  and  _567
REMARK  229  A    between atoms: _572  and  _574
REMARK  230  A    between atoms: _574  and  _575
REMARK  231  A    between atoms: _574  and  _577
REMARK  232  A    between atoms: _577  and  _578
REMARK  233  A    between atoms: _581  and  _583
REMARK  234  A    between atoms: _583  and  _584
REMARK  235  A    between atoms: _583  and  _586
REMARK  236  A    between atoms: _586  and  _587
REMARK                            x       y       z     vdW  Elec       q    Type
REMARK                         _______ _______ _______ _____ _____    ______ ____
ROOT
ATOM      1  CB  ASN A   1      18.735  -0.128  -5.995  0.00  0.00    +0.110 C 
ENDROOT
BRANCH   1   2
ATOM      2  CG  ASN A   1      17.541   0.673  -5.547  0.00  0.00    +0.221 C 
ATOM      3  ND2 ASN A   1      17.791   1.723  -4.758  0.00  0.00    -0.329 N 
ATOM      4 HD21 ASN A   1      17.010   2.332  -4.440  0.00  0.00    +0.145 HD
ATOM      5 HD22 ASN A   1      18.766   1.931  -4.462  0.00  0.00    +0.145 HD
ATOM      6  OD1 ASN A   1      16.409   0.377  -5.930  0.00  0.00    -0.275 OA
ENDBRANCH   1   2
BRANCH   1   7
ATOM      7  CA  ASN A   1      19.292   0.368  -7.346  0.00  0.00    +0.142 C 
BRANCH   7   8
ATOM      8  N   ASN A   1      19.855   1.696  -7.231  0.00  0.00    -0.239 NA
ATOM      9  H   ASN A   1      19.302   2.515  -7.556  0.00  0.00    +0.142 HD
ENDBRANCH   7   8
BRANCH   7  10
ATOM     10  C   ASN A   1      18.238   0.358  -8.426  0.00  0.00    +0.225 C 
ATOM     11  O   ASN A   1      17.750   1.418  -8.887  0.00  0.00    -0.287 OA
ENDBRANCH   7  10
ENDBRANCH   1   7
TORSDOF 4
REMARK  Name = ../refined-set-2016/3coy/3coy_pocket.pdb
REMARK  236 active torsions:
REMARK  status: ('A' for Active; 'I' for Inactive)
REMARK    1  A    between atoms: _1  and  _3
REMARK    2  A    between atoms: _3  and  _4
REMARK    3  A    between atoms: _3  and  _6
REMARK    4  A    between atoms: _10  and  _11
REMARK    5  A    between atoms: _16  and  _18
REMARK    6  A    between atoms: _18  and  _19
REMARK    7  A    between atoms: _18  and  _21
REMARK    8  A    between atoms: _21  and  _22
REMARK    9  A    between atoms: _25  and  _27
REMARK   10  A    between atoms: _27  and  _28
REMARK   11  A    between atoms: _27  and  _30
REMARK   12  A    between atoms: _30  and  _31
REMARK   13  A    between atoms: _31  and  _32
REMARK   14  A    between atoms: _34  and  _36
REMARK   15  A    between atoms: _36  and  _37
REMARK   16  A    between atoms: _39  and  _41
REMARK   17  A    between atoms: _41  and  _42
REMARK   18  A    between atoms: _45  and  _47
REMARK   19  A    between atoms: _47  and  _48
REMARK   20  A    between atoms: _47  and  _50
REMARK   21  A    between atoms: _50  and  _51
REMARK   22  A    between atoms: _54  and  _56
REMARK   23  A    between atoms: _56  and  _57
REMARK   24  A    between atoms: _56  and  _59
REMARK   25  A    between atoms: _59  and  _60
REMARK   26  A    between atoms: _65  and  _67
REMARK   27  A    between atoms: _67  and  _68
REMARK   28  A    between atoms: _67  and  _70
REMARK   29  A    between atoms: _70  and  _71
REMARK   30  A    between atoms: _71  and  _72
REMARK   31  A    between atoms: _75  and  _77
REMARK   32  A    between atoms: _77  and  _78
REMARK   33  A    between atoms: _80  and  _82
REMARK   34  A    between atoms: _82  and  _83
REMARK   35  A    between atoms: _82  and  _85
REMARK   36  A    between atoms: _85  and  _86
REMARK   37  A    between atoms: _91  and  _93
REMARK   38  A    between atoms: _93  and  _94
REMARK   39  A    between atoms: _93  and  _96
REMARK   40  A    between atoms: _96  and  _97
REMARK   41  A    between atoms: _100  and  _102
REMARK   42  A    between atoms: _102  and  _103
REMARK   43  A    between atoms: _106  and  _108
REMARK   44  A    between atoms: _108  and  _109
REMARK   45  A    between atoms: _108  and  _111
REMARK   46  A    between atoms: _111  and  _112
REMARK   47  A    between atoms: _115  and  _117
REMARK   48  A    between atoms: _117  and  _118
REMARK   49  A    between atoms: _117  and  _120
REMARK   50  A    between atoms: _123  and  _125
REMARK   51  A    between atoms: _125  and  _126
REMARK   52  A    between atoms: _125  and  _128
REMARK   53  A    between atoms: _131  and  _133
REMARK   54  A    between atoms: _133  and  _134
REMARK   55  A    between atoms: _133  and  _136
REMARK   56  A    between atoms: _136  and  _137
REMARK   57  A    between atoms: _139  and  _141
REMARK   58  A    between atoms: _141  and  _142
REMARK   59  A    between atoms: _141  and  _144
REMARK   60  A    between atoms: _144  and  _145
REMARK   61  A    between atoms: _148  and  _150
REMARK   62  A    between atoms: _150  and  _151
REMARK   63  A    between atoms: _150  and  _153
REMARK   64  A    between atoms: _153  and  _154
REMARK   65  A    between atoms: _160  and  _162
REMARK   66  A    between atoms: _162  and  _163
REMARK   67  A    between atoms: _162  and  _165
REMARK   68  A    between atoms: _168  and  _170
REMARK   69  A    between atoms: _170  and  _171
REMARK   70  A    between atoms: _170  and  _173
REMARK   71  A    between atoms: _173  and  _174
REMARK   72  A    between atoms: _179  and  _181
REMARK   73  A    between atoms: _181  and  _182
REMARK   74  A    between atoms: _181  and  _184
REMARK   75  A    between atoms: _184  and  _185
REMARK   76  A    between atoms: _185  and  _186
REMARK   77  A    between atoms: _191  and  _193
REMARK   78  A    between atoms: _193  and  _194
REMARK   79  A    between atoms: _193  and  _196
REMARK   80  A    between atoms: _196  and  _197
REMARK   81  A    between atoms: _203  and  _205
REMARK   82  A    between atoms: _205  and  _206
REMARK   83  A    between atoms: _205  and  _208
REMARK   84  A    between atoms: _208  and  _209
REMARK   85  A    between atoms: _214  and  _215
REMARK   86  A    between atoms: _217  and  _219
REMARK   87  A    between atoms: _219  and  _220
REMARK   88  A    between atoms: _219  and  _222
REMARK   89  A    between atoms: _222  and  _223
REMARK   90  A    between atoms: _228  and  _229
REMARK   91  A    between atoms: _231  and  _233
REMARK   92  A    between atoms: _233  and  _234
REMARK   93  A    between atoms: _233  and  _236
REMARK   94  A    between atoms: _236  and  _237
REMARK   95  A    between atoms: _242  and  _244
REMARK   96  A    between atoms: _244  and  _245
REMARK   97  A    between atoms: _244  and  _247
REMARK   98  A    between atoms: _247  and  _248
REMARK   99  A    between atoms: _254  and  _256
REMARK  100  A    between atoms: _256  and  _257
REMARK  101  A    between atoms: _259  and  _261
REMARK  102  A    between atoms: _261  and  _262
REMARK  103  A    between atoms: _261  and  _264
REMARK  104  A    between atoms: _267  and  _269
REMARK  105  A    between atoms: _269  and  _270
REMARK  106  A    between atoms: _269  and  _272
REMARK  107  A    between atoms: _272  and  _273
REMARK  108  A    between atoms: _276  and  _278
REMARK  109  A    between atoms: _278  and  _279
REMARK  110  A    between atoms: _278  and  _281
REMARK  111  A    between atoms: _281  and  _282
REMARK  112  A    between atoms: _285  and  _287
REMARK  113  A    between atoms: _287  and  _288
REMARK  114  A    between atoms: _287  and  _290
REMARK  115  A    between atoms: _293  and  _295
REMARK  116  A    between atoms: _295  and  _296
REMARK  117  A    between atoms: _295  and  _298
REMARK  118  A    between atoms: _301  and  _303
REMARK  119  A    between atoms: _303  and  _304
REMARK  120  A    between atoms: _303  and  _306
REMARK  121  A    between atoms: _306  and  _307
REMARK  122  A    between atoms: _310  and  _312
REMARK  123  A    between atoms: _312  and  _313
REMARK  124  A    between atoms: _312  and  _315
REMARK  125  A    between atoms: _315  and  _316
REMARK  126  A    between atoms: _319  and  _321
REMARK  127  A    between atoms: _321  and  _322
REMARK  128  A    between atoms: _321  and  _324
REMARK  129  A    between atoms: _327  and  _329
REMARK  130  A    between atoms: _329  and  _330
REMARK  131  A    between atoms: _329  and  _332
REMARK  132  A    between atoms: _332  and  _333
REMARK  133  A    between atoms: _339  and  _341
REMARK  134  A    between atoms: _341  and  _342
REMARK  135  A    between atoms: _341  and  _344
REMARK  136  A    between atoms: _344  and  _345
REMARK  137  A    between atoms: _351  and  _353
REMARK  138  A    between atoms: _353  and  _354
REMARK  139  A    between atoms: _356  and  _358
REMARK  140  A    between atoms: _358  and  _359
REMARK  141  A    between atoms: _358  and  _361
REMARK  142  A    between atoms: _361  and  _362
REMARK  143  A    between atoms: _362  and  _363
REMARK  144  A    between atoms: _366  and  _368
REMARK  145  A    between atoms: _368  and  _369
REMARK  146  A    between atoms: _368  and  _371
REMARK  147  A    between atoms: _371  and  _372
REMARK  148  A    between atoms: _372  and  _373
REMARK  149  A    between atoms: _373  and  _374
REMARK  150  A    between atoms: _374  and  _375
REMARK  151  A    between atoms: _379  and  _381
REMARK  152  A    between atoms: _381  and  _382
REMARK  153  A    between atoms: _381  and  _384
REMARK  154  A    between atoms: _384  and  _385
REMARK  155  A    between atoms: _388  and  _390
REMARK  156  A    between atoms: _390  and  _391
REMARK  157  A    between atoms: _390  and  _393
REMARK  158  A    between atoms: _393  and  _394
REMARK  159  A    between atoms: _399  and  _400
REMARK  160  A    between atoms: _402  and  _404
REMARK  161  A    between atoms: _404  and  _405
REMARK  162  A    between atoms: _404  and  _407
REMARK  163  A    between atoms: _407  and  _408
REMARK  164  A    between atoms: _408  and  _409
REMARK  165  A    between atoms: _414  and  _416
REMARK  166  A    between atoms: _416  and  _417
REMARK  167  A    between atoms: _416  and  _419
REMARK  168  A    between atoms: _419  and  _420
REMARK  169  A    between atoms: _423  and  _425
REMARK  170  A    between atoms: _425  and  _426
REMARK  171  A    between atoms: _425  and  _428
REMARK  172  A    between atoms: _428  and  _429
REMARK  173  A    between atoms: _432  and  _434
REMARK  174  A    between atoms: _434  and  _435
REMARK  175  A    between atoms: _434  and  _437
REMARK  176  A    between atoms: _440  and  _442
REMARK  177  A    between atoms: _442  and  _443
REMARK  178  A    between atoms: _445  and  _447
REMARK  179  A    between atoms: _447  and  _448
REMARK  180  A    between atoms: _447  and  _450
REMARK  181  A    between atoms: _454  and  _455
REMARK  182  A    between atoms: _460  and  _462
REMARK  183  A    between atoms: _462  and  _463
REMARK  184  A    between atoms: _462  and  _465
REMARK  185  A    between atoms: _465  and  _466
REMARK  186  A    between atoms: _469  and  _471
REMARK  187  A    between atoms: _471  and  _472
REMARK  188  A    between atoms: _471  and  _474
REMARK  189  A    between atoms: _477  and  _479
REMARK  190  A    between atoms: _479  and  _480
REMARK  191  A    between atoms: _479  and  _482
REMARK  192  A    between atoms: _482  and  _483
REMARK  193  A    between atoms: _483  and  _484
REMARK  194  A    between atoms: _484  and  _485
REMARK  195  A    between atoms: _494  and  _496
REMARK  196  A    between atoms: _496  and  _497
REMARK  197  A    between atoms: _496  and  _499
REMARK  198  A    between atoms: _499  and  _500
REMARK  199  A    between atoms: _500  and  _501
REMARK  200  A    between atoms: _504  and  _506
REMARK  201  A    between atoms: _506  and  _507
REMARK  202  A    between atoms: _506  and  _509
REMARK  203  A    between atoms: _509  and  _510
REMARK  204  A    between atoms: _513  and  _515
REMARK  205  A    between atoms: _515  and  _516
REMARK  206  A    between atoms: _519  and  _521
REMARK  207  A    between atoms: _521  and  _522
REMARK  208  A    between atoms: _521  and  _524
REMARK  209  A    between atoms: _524  and  _525
REMARK  210  A    between atoms: _525  and  _526
REMARK  211  A    between atoms: _528  and  _530
REMARK  212  A    between atoms: _530  and  _531
REMARK  213  A    between atoms: _530  and  _533
REMARK  214  A    between atoms: _533  and  _534
REMARK  215  A    between atoms: _536  and  _538
REMARK  216  A    between atoms: _538  and  _539
REMARK  217  A    between atoms: _538  and  _541
REMARK  218  A    between atoms: _541  and  _542
REMARK  219  A    between atoms: _544  and  _546
REMARK  220  A    between atoms: _546  and  _547
REMARK  221  A    between atoms: _546  and  _549
REMARK  222  A    between atoms: _549  and  _550
REMARK  223  A    between atoms: _550  and  _551
REMARK  224  A    between atoms: _551  and  _552
REMARK  225  A    between atoms: _561  and  _563
REMARK  226  A    between atoms: _563  and  _564
REMARK  227  A    between atoms: _563  and  _566
REMARK  228  A    between atoms: _566  and  _567
REMARK  229  A    between atoms: _572  and  _574
REMARK  230  A    between atoms: _574  and  _575
REMARK  231  A    between atoms: _574  and  _577
REMARK  232  A    between atoms: _577  and  _578
REMARK  233  A    between atoms: _581  and  _583
REMARK  234  A    between atoms: _583  and  _584
REMARK  235  A    between atoms: _583  and  _586
REMARK  236  A    between atoms: _586  and  _587
REMARK                            x       y       z     vdW  Elec       q    Type
REMARK                         _______ _______ _______ _____ _____    ______ ____
ROOT
ATOM      1  O   HOH     1      18.683   2.096   1.861  0.00  0.00    +0.000 OA
ENDROOT
TORSDOF 0
REMARK  Name = ../refined-set-2016/3coy/3coy_pocket.pdb
REMARK  236 active torsions:
REMARK  status: ('A' for Active; 'I' for Inactive)
REMARK    1  A    between atoms: _1  and  _3
REMARK    2  A    between atoms: _3  and  _4
REMARK    3  A    between atoms: _3  and  _6
REMARK    4  A    between atoms: _10  and  _11
REMARK    5  A    between atoms: _16  and  _18
REMARK    6  A    between atoms: _18  and  _19
REMARK    7  A    between atoms: _18  and  _21
REMARK    8  A    between atoms: _21  and  _22
REMARK    9  A    between atoms: _25  and  _27
REMARK   10  A    between atoms: _27  and  _28
REMARK   11  A    between atoms: _27  and  _30
REMARK   12  A    between atoms: _30  and  _31
REMARK   13  A    between atoms: _31  and  _32
REMARK   14  A    between atoms: _34  and  _36
REMARK   15  A    between atoms: _36  and  _37
REMARK   16  A    between atoms: _39  and  _41
REMARK   17  A    between atoms: _41  and  _42
REMARK   18  A    between atoms: _45  and  _47
REMARK   19  A    between atoms: _47  and  _48
REMARK   20  A    between atoms: _47  and  _50
REMARK   21  A    between atoms: _50  and  _51
REMARK   22  A    between atoms: _54  and  _56
REMARK   23  A    between atoms: _56  and  _57
REMARK   24  A    between atoms: _56  and  _59
REMARK   25  A    between atoms: _59  and  _60
REMARK   26  A    between atoms: _65  and  _67
REMARK   27  A    between atoms: _67  and  _68
REMARK   28  A    between atoms: _67  and  _70
REMARK   29  A    between atoms: _70  and  _71
REMARK   30  A    between atoms: _71  and  _72
REMARK   31  A    between atoms: _75  and  _77
REMARK   32  A    between atoms: _77  and  _78
REMARK   33  A    between atoms: _80  and  _82
REMARK   34  A    between atoms: _82  and  _83
REMARK   35  A    between atoms: _82  and  _85
REMARK   36  A    between atoms: _85  and  _86
REMARK   37  A    between atoms: _91  and  _93
REMARK   38  A    between atoms: _93  and  _94
REMARK   39  A    between atoms: _93  and  _96
REMARK   40  A    between atoms: _96  and  _97
REMARK   41  A    between atoms: _100  and  _102
REMARK   42  A    between atoms: _102  and  _103
REMARK   43  A    between atoms: _106  and  _108
REMARK   44  A    between atoms: _108  and  _109
REMARK   45  A    between atoms: _108  and  _111
REMARK   46  A    between atoms: _111  and  _112
REMARK   47  A    between atoms: _115  and  _117
REMARK   48  A    between atoms: _117  and  _118
REMARK   49  A    between atoms: _117  and  _120
REMARK   50  A    between atoms: _123  and  _125
REMARK   51  A    between atoms: _125  and  _126
REMARK   52  A    between atoms: _125  and  _128
REMARK   53  A    between atoms: _131  and  _133
REMARK   54  A    between atoms: _133  and  _134
REMARK   55  A    between atoms: _133  and  _136
REMARK   56  A    between atoms: _136  and  _137
REMARK   57  A    between atoms: _139  and  _141
REMARK   58  A    between atoms: _141  and  _142
REMARK   59  A    between atoms: _141  and  _144
REMARK   60  A    between atoms: _144  and  _145
REMARK   61  A    between atoms: _148  and  _150
REMARK   62  A    between atoms: _150  and  _151
REMARK   63  A    between atoms: _150  and  _153
REMARK   64  A    between atoms: _153  and  _154
REMARK   65  A    between atoms: _160  and  _162
REMARK   66  A    between atoms: _162  and  _163
REMARK   67  A    between atoms: _162  and  _165
REMARK   68  A    between atoms: _168  and  _170
REMARK   69  A    between atoms: _170  and  _171
REMARK   70  A    between atoms: _170  and  _173
REMARK   71  A    between atoms: _173  and  _174
REMARK   72  A    between atoms: _179  and  _181
REMARK   73  A    between atoms: _181  and  _182
REMARK   74  A    between atoms: _181  and  _184
REMARK   75  A    between atoms: _184  and  _185
REMARK   76  A    between atoms: _185  and  _186
REMARK   77  A    between atoms: _191  and  _193
REMARK   78  A    between atoms: _193  and  _194
REMARK   79  A    between atoms: _193  and  _196
REMARK   80  A    between atoms: _196  and  _197
REMARK   81  A    between atoms: _203  and  _205
REMARK   82  A    between atoms: _205  and  _206
REMARK   83  A    between atoms: _205  and  _208
REMARK   84  A    between atoms: _208  and  _209
REMARK   85  A    between atoms: _214  and  _215
REMARK   86  A    between atoms: _217  and  _219
REMARK   87  A    between atoms: _219  and  _220
REMARK   88  A    between atoms: _219  and  _222
REMARK   89  A    between atoms: _222  and  _223
REMARK   90  A    between atoms: _228  and  _229
REMARK   91  A    between atoms: _231  and  _233
REMARK   92  A    between atoms: _233  and  _234
REMARK   93  A    between atoms: _233  and  _236
REMARK   94  A    between atoms: _236  and  _237
REMARK   95  A    between atoms: _242  and  _244
REMARK   96  A    between atoms: _244  and  _245
REMARK   97  A    between atoms: _244  and  _247
REMARK   98  A    between atoms: _247  and  _248
REMARK   99  A    between atoms: _254  and  _256
REMARK  100  A    between atoms: _256  and  _257
REMARK  101  A    between atoms: _259  and  _261
REMARK  102  A    between atoms: _261  and  _262
REMARK  103  A    between atoms: _261  and  _264
REMARK  104  A    between atoms: _267  and  _269
REMARK  105  A    between atoms: _269  and  _270
REMARK  106  A    between atoms: _269  and  _272
REMARK  107  A    between atoms: _272  and  _273
REMARK  108  A    between atoms: _276  and  _278
REMARK  109  A    between atoms: _278  and  _279
REMARK  110  A    between atoms: _278  and  _281
REMARK  111  A    between atoms: _281  and  _282
REMARK  112  A    between atoms: _285  and  _287
REMARK  113  A    between atoms: _287  and  _288
REMARK  114  A    between atoms: _287  and  _290
REMARK  115  A    between atoms: _293  and  _295
REMARK  116  A    between atoms: _295  and  _296
REMARK  117  A    between atoms: _295  and  _298
REMARK  118  A    between atoms: _301  and  _303
REMARK  119  A    between atoms: _303  and  _304
REMARK  120  A    between atoms: _303  and  _306
REMARK  121  A    between atoms: _306  and  _307
REMARK  122  A    between atoms: _310  and  _312
REMARK  123  A    between atoms: _312  and  _313
REMARK  124  A    between atoms: _312  and  _315
REMARK  125  A    between atoms: _315  and  _316
REMARK  126  A    between atoms: _319  and  _321
REMARK  127  A    between atoms: _321  and  _322
REMARK  128  A    between atoms: _321  and  _324
REMARK  129  A    between atoms: _327  and  _329
REMARK  130  A    between atoms: _329  and  _330
REMARK  131  A    between atoms: _329  and  _332
REMARK  132  A    between atoms: _332  and  _333
REMARK  133  A    between atoms: _339  and  _341
REMARK  134  A    between atoms: _341  and  _342
REMARK  135  A    between atoms: _341  and  _344
REMARK  136  A    between atoms: _344  and  _345
REMARK  137  A    between atoms: _351  and  _353
REMARK  138  A    between atoms: _353  and  _354
REMARK  139  A    between atoms: _356  and  _358
REMARK  140  A    between atoms: _358  and  _359
REMARK  141  A    between atoms: _358  and  _361
REMARK  142  A    between atoms: _361  and  _362
REMARK  143  A    between atoms: _362  and  _363
REMARK  144  A    between atoms: _366  and  _368
REMARK  145  A    between atoms: _368  and  _369
REMARK  146  A    between atoms: _368  and  _371
REMARK  147  A    between atoms: _371  and  _372
REMARK  148  A    between atoms: _372  and  _373
REMARK  149  A    between atoms: _373  and  _374
REMARK  150  A    between atoms: _374  and  _375
REMARK  151  A    between atoms: _379  and  _381
REMARK  152  A    between atoms: _381  and  _382
REMARK  153  A    between atoms: _381  and  _384
REMARK  154  A    between atoms: _384  and  _385
REMARK  155  A    between atoms: _388  and  _390
REMARK  156  A    between atoms: _390  and  _391
REMARK  157  A    between atoms: _390  and  _393
REMARK  158  A    between atoms: _393  and  _394
REMARK  159  A    between atoms: _399  and  _400
REMARK  160  A    between atoms: _402  and  _404
REMARK  161  A    between atoms: _404  and  _405
REMARK  162  A    between atoms: _404  and  _407
REMARK  163  A    between atoms: _407  and  _408
REMARK  164  A    between atoms: _408  and  _409
REMARK  165  A    between atoms: _414  and  _416
REMARK  166  A    between atoms: _416  and  _417
REMARK  167  A    between atoms: _416  and  _419
REMARK  168  A    between atoms: _419  and  _420
REMARK  169  A    between atoms: _423  and  _425
REMARK  170  A    between atoms: _425  and  _426
REMARK  171  A    between atoms: _425  and  _428
REMARK  172  A    between atoms: _428  and  _429
REMARK  173  A    between atoms: _432  and  _434
REMARK  174  A    between atoms: _434  and  _435
REMARK  175  A    between atoms: _434  and  _437
REMARK  176  A    between atoms: _440  and  _442
REMARK  177  A    between atoms: _442  and  _443
REMARK  178  A    between atoms: _445  and  _447
REMARK  179  A    between atoms: _447  and  _448
REMARK  180  A    between atoms: _447  and  _450
REMARK  181  A    between atoms: _454  and  _455
REMARK  182  A    between atoms: _460  and  _462
REMARK  183  A    between atoms: _462  and  _463
REMARK  184  A    between atoms: _462  and  _465
REMARK  185  A    between atoms: _465  and  _466
REMARK  186  A    between atoms: _469  and  _471
REMARK  187  A    between atoms: _471  and  _472
REMARK  188  A    between atoms: _471  and  _474
REMARK  189  A    between atoms: _477  and  _479
REMARK  190  A    between atoms: _479  and  _480
REMARK  191  A    between atoms: _479  and  _482
REMARK  192  A    between atoms: _482  and  _483
REMARK  193  A    between atoms: _483  and  _484
REMARK  194  A    between atoms: _484  and  _485
REMARK  195  A    between atoms: _494  and  _496
REMARK  196  A    between atoms: _496  and  _497
REMARK  197  A    between atoms: _496  and  _499
REMARK  198  A    between atoms: _499  and  _500
REMARK  199  A    between atoms: _500  and  _501
REMARK  200  A    between atoms: _504  and  _506
REMARK  201  A    between atoms: _506  and  _507
REMARK  202  A    between atoms: _506  and  _509
REMARK  203  A    between atoms: _509  and  _510
REMARK  204  A    between atoms: _513  and  _515
REMARK  205  A    between atoms: _515  and  _516
REMARK  206  A    between atoms: _519  and  _521
REMARK  207  A    between atoms: _521  and  _522
REMARK  208  A    between atoms: _521  and  _524
REMARK  209  A    between atoms: _524  and  _525
REMARK  210  A    between atoms: _525  and  _526
REMARK  211  A    between atoms: _528  and  _530
REMARK  212  A    between atoms: _530  and  _531
REMARK  213  A    between atoms: _530  and  _533
REMARK  214  A    between atoms: _533  and  _534
REMARK  215  A    between atoms: _536  and  _538
REMARK  216  A    between atoms: _538  and  _539
REMARK  217  A    between atoms: _538  and  _541
REMARK  218  A    between atoms: _541  and  _542
REMARK  219  A    between atoms: _544  and  _546
REMARK  220  A    between atoms: _546  and  _547
REMARK  221  A    between atoms: _546  and  _549
REMARK  222  A    between atoms: _549  and  _550
REMARK  223  A    between atoms: _550  and  _551
REMARK  224  A    between atoms: _551  and  _552
REMARK  225  A    between atoms: _561  and  _563
REMARK  226  A    between atoms: _563  and  _564
REMARK  227  A    between atoms: _563  and  _566
REMARK  228  A    between atoms: _566  and  _567
REMARK  229  A    between atoms: _572  and  _574
REMARK  230  A    between atoms: _574  and  _575
REMARK  231  A    between atoms: _574  and  _577
REMARK  232  A    between atoms: _577  and  _578
REMARK  233  A    between atoms: _581  and  _583
REMARK  234  A    between atoms: _583  and  _584
REMARK  235  A    between atoms: _583  and  _586
REMARK  236  A    between atoms: _586  and  _587
REMARK                            x       y       z     vdW  Elec       q    Type
REMARK                         _______ _______ _______ _____ _____    ______ ____
ROOT
ATOM      1  O   HOH     1      11.892  13.287   9.675  0.00  0.00    +0.000 OA
ENDROOT
TORSDOF 0
REMARK  Name = ../refined-set-2016/3coy/3coy_pocket.pdb
REMARK  236 active torsions:
REMARK  status: ('A' for Active; 'I' for Inactive)
REMARK    1  A    between atoms: _1  and  _3
REMARK    2  A    between atoms: _3  and  _4
REMARK    3  A    between atoms: _3  and  _6
REMARK    4  A    between atoms: _10  and  _11
REMARK    5  A    between atoms: _16  and  _18
REMARK    6  A    between atoms: _18  and  _19
REMARK    7  A    between atoms: _18  and  _21
REMARK    8  A    between atoms: _21  and  _22
REMARK    9  A    between atoms: _25  and  _27
REMARK   10  A    between atoms: _27  and  _28
REMARK   11  A    between atoms: _27  and  _30
REMARK   12  A    between atoms: _30  and  _31
REMARK   13  A    between atoms: _31  and  _32
REMARK   14  A    between atoms: _34  and  _36
REMARK   15  A    between atoms: _36  and  _37
REMARK   16  A    between atoms: _39  and  _41
REMARK   17  A    between atoms: _41  and  _42
REMARK   18  A    between atoms: _45  and  _47
REMARK   19  A    between atoms: _47  and  _48
REMARK   20  A    between atoms: _47  and  _50
REMARK   21  A    between atoms: _50  and  _51
REMARK   22  A    between atoms: _54  and  _56
REMARK   23  A    between atoms: _56  and  _57
REMARK   24  A    between atoms: _56  and  _59
REMARK   25  A    between atoms: _59  and  _60
REMARK   26  A    between atoms: _65  and  _67
REMARK   27  A    between atoms: _67  and  _68
REMARK   28  A    between atoms: _67  and  _70
REMARK   29  A    between atoms: _70  and  _71
REMARK   30  A    between atoms: _71  and  _72
REMARK   31  A    between atoms: _75  and  _77
REMARK   32  A    between atoms: _77  and  _78
REMARK   33  A    between atoms: _80  and  _82
REMARK   34  A    between atoms: _82  and  _83
REMARK   35  A    between atoms: _82  and  _85
REMARK   36  A    between atoms: _85  and  _86
REMARK   37  A    between atoms: _91  and  _93
REMARK   38  A    between atoms: _93  and  _94
REMARK   39  A    between atoms: _93  and  _96
REMARK   40  A    between atoms: _96  and  _97
REMARK   41  A    between atoms: _100  and  _102
REMARK   42  A    between atoms: _102  and  _103
REMARK   43  A    between atoms: _106  and  _108
REMARK   44  A    between atoms: _108  and  _109
REMARK   45  A    between atoms: _108  and  _111
REMARK   46  A    between atoms: _111  and  _112
REMARK   47  A    between atoms: _115  and  _117
REMARK   48  A    between atoms: _117  and  _118
REMARK   49  A    between atoms: _117  and  _120
REMARK   50  A    between atoms: _123  and  _125
REMARK   51  A    between atoms: _125  and  _126
REMARK   52  A    between atoms: _125  and  _128
REMARK   53  A    between atoms: _131  and  _133
REMARK   54  A    between atoms: _133  and  _134
REMARK   55  A    between atoms: _133  and  _136
REMARK   56  A    between atoms: _136  and  _137
REMARK   57  A    between atoms: _139  and  _141
REMARK   58  A    between atoms: _141  and  _142
REMARK   59  A    between atoms: _141  and  _144
REMARK   60  A    between atoms: _144  and  _145
REMARK   61  A    between atoms: _148  and  _150
REMARK   62  A    between atoms: _150  and  _151
REMARK   63  A    between atoms: _150  and  _153
REMARK   64  A    between atoms: _153  and  _154
REMARK   65  A    between atoms: _160  and  _162
REMARK   66  A    between atoms: _162  and  _163
REMARK   67  A    between atoms: _162  and  _165
REMARK   68  A    between atoms: _168  and  _170
REMARK   69  A    between atoms: _170  and  _171
REMARK   70  A    between atoms: _170  and  _173
REMARK   71  A    between atoms: _173  and  _174
REMARK   72  A    between atoms: _179  and  _181
REMARK   73  A    between atoms: _181  and  _182
REMARK   74  A    between atoms: _181  and  _184
REMARK   75  A    between atoms: _184  and  _185
REMARK   76  A    between atoms: _185  and  _186
REMARK   77  A    between atoms: _191  and  _193
REMARK   78  A    between atoms: _193  and  _194
REMARK   79  A    between atoms: _193  and  _196
REMARK   80  A    between atoms: _196  and  _197
REMARK   81  A    between atoms: _203  and  _205
REMARK   82  A    between atoms: _205  and  _206
REMARK   83  A    between atoms: _205  and  _208
REMARK   84  A    between atoms: _208  and  _209
REMARK   85  A    between atoms: _214  and  _215
REMARK   86  A    between atoms: _217  and  _219
REMARK   87  A    between atoms: _219  and  _220
REMARK   88  A    between atoms: _219  and  _222
REMARK   89  A    between atoms: _222  and  _223
REMARK   90  A    between atoms: _228  and  _229
REMARK   91  A    between atoms: _231  and  _233
REMARK   92  A    between atoms: _233  and  _234
REMARK   93  A    between atoms: _233  and  _236
REMARK   94  A    between atoms: _236  and  _237
REMARK   95  A    between atoms: _242  and  _244
REMARK   96  A    between atoms: _244  and  _245
REMARK   97  A    between atoms: _244  and  _247
REMARK   98  A    between atoms: _247  and  _248
REMARK   99  A    between atoms: _254  and  _256
REMARK  100  A    between atoms: _256  and  _257
REMARK  101  A    between atoms: _259  and  _261
REMARK  102  A    between atoms: _261  and  _262
REMARK  103  A    between atoms: _261  and  _264
REMARK  104  A    between atoms: _267  and  _269
REMARK  105  A    between atoms: _269  and  _270
REMARK  106  A    between atoms: _269  and  _272
REMARK  107  A    between atoms: _272  and  _273
REMARK  108  A    between atoms: _276  and  _278
REMARK  109  A    between atoms: _278  and  _279
REMARK  110  A    between atoms: _278  and  _281
REMARK  111  A    between atoms: _281  and  _282
REMARK  112  A    between atoms: _285  and  _287
REMARK  113  A    between atoms: _287  and  _288
REMARK  114  A    between atoms: _287  and  _290
REMARK  115  A    between atoms: _293  and  _295
REMARK  116  A    between atoms: _295  and  _296
REMARK  117  A    between atoms: _295  and  _298
REMARK  118  A    between atoms: _301  and  _303
REMARK  119  A    between atoms: _303  and  _304
REMARK  120  A    between atoms: _303  and  _306
REMARK  121  A    between atoms: _306  and  _307
REMARK  122  A    between atoms: _310  and  _312
REMARK  123  A    between atoms: _312  and  _313
REMARK  124  A    between atoms: _312  and  _315
REMARK  125  A    between atoms: _315  and  _316
REMARK  126  A    between atoms: _319  and  _321
REMARK  127  A    between atoms: _321  and  _322
REMARK  128  A    between atoms: _321  and  _324
REMARK  129  A    between atoms: _327  and  _329
REMARK  130  A    between atoms: _329  and  _330
REMARK  131  A    between atoms: _329  and  _332
REMARK  132  A    between atoms: _332  and  _333
REMARK  133  A    between atoms: _339  and  _341
REMARK  134  A    between atoms: _341  and  _342
REMARK  135  A    between atoms: _341  and  _344
REMARK  136  A    between atoms: _344  and  _345
REMARK  137  A    between atoms: _351  and  _353
REMARK  138  A    between atoms: _353  and  _354
REMARK  139  A    between atoms: _356  and  _358
REMARK  140  A    between atoms: _358  and  _359
REMARK  141  A    between atoms: _358  and  _361
REMARK  142  A    between atoms: _361  and  _362
REMARK  143  A    between atoms: _362  and  _363
REMARK  144  A    between atoms: _366  and  _368
REMARK  145  A    between atoms: _368  and  _369
REMARK  146  A    between atoms: _368  and  _371
REMARK  147  A    between atoms: _371  and  _372
REMARK  148  A    between atoms: _372  and  _373
REMARK  149  A    between atoms: _373  and  _374
REMARK  150  A    between atoms: _374  and  _375
REMARK  151  A    between atoms: _379  and  _381
REMARK  152  A    between atoms: _381  and  _382
REMARK  153  A    between atoms: _381  and  _384
REMARK  154  A    between atoms: _384  and  _385
REMARK  155  A    between atoms: _388  and  _390
REMARK  156  A    between atoms: _390  and  _391
REMARK  157  A    between atoms: _390  and  _393
REMARK  158  A    between atoms: _393  and  _394
REMARK  159  A    between atoms: _399  and  _400
REMARK  160  A    between atoms: _402  and  _404
REMARK  161  A    between atoms: _404  and  _405
REMARK  162  A    between atoms: _404  and  _407
REMARK  163  A    between atoms: _407  and  _408
REMARK  164  A    between atoms: _408  and  _409
REMARK  165  A    between atoms: _414  and  _416
REMARK  166  A    between atoms: _416  and  _417
REMARK  167  A    between atoms: _416  and  _419
REMARK  168  A    between atoms: _419  and  _420
REMARK  169  A    between atoms: _423  and  _425
REMARK  170  A    between atoms: _425  and  _426
REMARK  171  A    between atoms: _425  and  _428
REMARK  172  A    between atoms: _428  and  _429
REMARK  173  A    between atoms: _432  and  _434
REMARK  174  A    between atoms: _434  and  _435
REMARK  175  A    between atoms: _434  and  _437
REMARK  176  A    between atoms: _440  and  _442
REMARK  177  A    between atoms: _442  and  _443
REMARK  178  A    between atoms: _445  and  _447
REMARK  179  A    between atoms: _447  and  _448
REMARK  180  A    between atoms: _447  and  _450
REMARK  181  A    between atoms: _454  and  _455
REMARK  182  A    between atoms: _460  and  _462
REMARK  183  A    between atoms: _462  and  _463
REMARK  184  A    between atoms: _462  and  _465
REMARK  185  A    between atoms: _465  and  _466
REMARK  186  A    between atoms: _469  and  _471
REMARK  187  A    between atoms: _471  and  _472
REMARK  188  A    between atoms: _471  and  _474
REMARK  189  A    between atoms: _477  and  _479
REMARK  190  A    between atoms: _479  and  _480
REMARK  191  A    between atoms: _479  and  _482
REMARK  192  A    between atoms: _482  and  _483
REMARK  193  A    between atoms: _483  and  _484
REMARK  194  A    between atoms: _484  and  _485
REMARK  195  A    between atoms: _494  and  _496
REMARK  196  A    between atoms: _496  and  _497
REMARK  197  A    between atoms: _496  and  _499
REMARK  198  A    between atoms: _499  and  _500
REMARK  199  A    between atoms: _500  and  _501
REMARK  200  A    between atoms: _504  and  _506
REMARK  201  A    between atoms: _506  and  _507
REMARK  202  A    between atoms: _506  and  _509
REMARK  203  A    between atoms: _509  and  _510
REMARK  204  A    between atoms: _513  and  _515
REMARK  205  A    between atoms: _515  and  _516
REMARK  206  A    between atoms: _519  and  _521
REMARK  207  A    between atoms: _521  and  _522
REMARK  208  A    between atoms: _521  and  _524
REMARK  209  A    between atoms: _524  and  _525
REMARK  210  A    between atoms: _525  and  _526
REMARK  211  A    between atoms: _528  and  _530
REMARK  212  A    between atoms: _530  and  _531
REMARK  213  A    between atoms: _530  and  _533
REMARK  214  A    between atoms: _533  and  _534
REMARK  215  A    between atoms: _536  and  _538
REMARK  216  A    between atoms: _538  and  _539
REMARK  217  A    between atoms: _538  and  _541
REMARK  218  A    between atoms: _541  and  _542
REMARK  219  A    between atoms: _544  and  _546
REMARK  220  A    between atoms: _546  and  _547
REMARK  221  A    between atoms: _546  and  _549
REMARK  222  A    between atoms: _549  and  _550
REMARK  223  A    between atoms: _550  and  _551
REMARK  224  A    between atoms: _551  and  _552
REMARK  225  A    between atoms: _561  and  _563
REMARK  226  A    between atoms: _563  and  _564
REMARK  227  A    between atoms: _563  and  _566
REMARK  228  A    between atoms: _566  and  _567
REMARK  229  A    between atoms: _572  and  _574
REMARK  230  A    between atoms: _574  and  _575
REMARK  231  A    between atoms: _574  and  _577
REMARK  232  A    between atoms: _577  and  _578
REMARK  233  A    between atoms: _581  and  _583
REMARK  234  A    between atoms: _583  and  _584
REMARK  235  A    between atoms: _583  and  _586
REMARK  236  A    between atoms: _586  and  _587
REMARK                            x       y       z     vdW  Elec       q    Type
REMARK                         _______ _______ _______ _____ _____    ______ ____
ROOT
ATOM      1  O   HOH     1      13.520   4.677   1.670  0.00  0.00    +0.000 OA
ENDROOT
TORSDOF 0
REMARK  Name = ../refined-set-2016/3coy/3coy_pocket.pdb
REMARK  236 active torsions:
REMARK  status: ('A' for Active; 'I' for Inactive)
REMARK    1  A    between atoms: _1  and  _3
REMARK    2  A    between atoms: _3  and  _4
REMARK    3  A    between atoms: _3  and  _6
REMARK    4  A    between atoms: _10  and  _11
REMARK    5  A    between atoms: _16  and  _18
REMARK    6  A    between atoms: _18  and  _19
REMARK    7  A    between atoms: _18  and  _21
REMARK    8  A    between atoms: _21  and  _22
REMARK    9  A    between atoms: _25  and  _27
REMARK   10  A    between atoms: _27  and  _28
REMARK   11  A    between atoms: _27  and  _30
REMARK   12  A    between atoms: _30  and  _31
REMARK   13  A    between atoms: _31  and  _32
REMARK   14  A    between atoms: _34  and  _36
REMARK   15  A    between atoms: _36  and  _37
REMARK   16  A    between atoms: _39  and  _41
REMARK   17  A    between atoms: _41  and  _42
REMARK   18  A    between atoms: _45  and  _47
REMARK   19  A    between atoms: _47  and  _48
REMARK   20  A    between atoms: _47  and  _50
REMARK   21  A    between atoms: _50  and  _51
REMARK   22  A    between atoms: _54  and  _56
REMARK   23  A    between atoms: _56  and  _57
REMARK   24  A    between atoms: _56  and  _59
REMARK   25  A    between atoms: _59  and  _60
REMARK   26  A    between atoms: _65  and  _67
REMARK   27  A    between atoms: _67  and  _68
REMARK   28  A    between atoms: _67  and  _70
REMARK   29  A    between atoms: _70  and  _71
REMARK   30  A    between atoms: _71  and  _72
REMARK   31  A    between atoms: _75  and  _77
REMARK   32  A    between atoms: _77  and  _78
REMARK   33  A    between atoms: _80  and  _82
REMARK   34  A    between atoms: _82  and  _83
REMARK   35  A    between atoms: _82  and  _85
REMARK   36  A    between atoms: _85  and  _86
REMARK   37  A    between atoms: _91  and  _93
REMARK   38  A    between atoms: _93  and  _94
REMARK   39  A    between atoms: _93  and  _96
REMARK   40  A    between atoms: _96  and  _97
REMARK   41  A    between atoms: _100  and  _102
REMARK   42  A    between atoms: _102  and  _103
REMARK   43  A    between atoms: _106  and  _108
REMARK   44  A    between atoms: _108  and  _109
REMARK   45  A    between atoms: _108  and  _111
REMARK   46  A    between atoms: _111  and  _112
REMARK   47  A    between atoms: _115  and  _117
REMARK   48  A    between atoms: _117  and  _118
REMARK   49  A    between atoms: _117  and  _120
REMARK   50  A    between atoms: _123  and  _125
REMARK   51  A    between atoms: _125  and  _126
REMARK   52  A    between atoms: _125  and  _128
REMARK   53  A    between atoms: _131  and  _133
REMARK   54  A    between atoms: _133  and  _134
REMARK   55  A    between atoms: _133  and  _136
REMARK   56  A    between atoms: _136  and  _137
REMARK   57  A    between atoms: _139  and  _141
REMARK   58  A    between atoms: _141  and  _142
REMARK   59  A    between atoms: _141  and  _144
REMARK   60  A    between atoms: _144  and  _145
REMARK   61  A    between atoms: _148  and  _150
REMARK   62  A    between atoms: _150  and  _151
REMARK   63  A    between atoms: _150  and  _153
REMARK   64  A    between atoms: _153  and  _154
REMARK   65  A    between atoms: _160  and  _162
REMARK   66  A    between atoms: _162  and  _163
REMARK   67  A    between atoms: _162  and  _165
REMARK   68  A    between atoms: _168  and  _170
REMARK   69  A    between atoms: _170  and  _171
REMARK   70  A    between atoms: _170  and  _173
REMARK   71  A    between atoms: _173  and  _174
REMARK   72  A    between atoms: _179  and  _181
REMARK   73  A    between atoms: _181  and  _182
REMARK   74  A    between atoms: _181  and  _184
REMARK   75  A    between atoms: _184  and  _185
REMARK   76  A    between atoms: _185  and  _186
REMARK   77  A    between atoms: _191  and  _193
REMARK   78  A    between atoms: _193  and  _194
REMARK   79  A    between atoms: _193  and  _196
REMARK   80  A    between atoms: _196  and  _197
REMARK   81  A    between atoms: _203  and  _205
REMARK   82  A    between atoms: _205  and  _206
REMARK   83  A    between atoms: _205  and  _208
REMARK   84  A    between atoms: _208  and  _209
REMARK   85  A    between atoms: _214  and  _215
REMARK   86  A    between atoms: _217  and  _219
REMARK   87  A    between atoms: _219  and  _220
REMARK   88  A    between atoms: _219  and  _222
REMARK   89  A    between atoms: _222  and  _223
REMARK   90  A    between atoms: _228  and  _229
REMARK   91  A    between atoms: _231  and  _233
REMARK   92  A    between atoms: _233  and  _234
REMARK   93  A    between atoms: _233  and  _236
REMARK   94  A    between atoms: _236  and  _237
REMARK   95  A    between atoms: _242  and  _244
REMARK   96  A    between atoms: _244  and  _245
REMARK   97  A    between atoms: _244  and  _247
REMARK   98  A    between atoms: _247  and  _248
REMARK   99  A    between atoms: _254  and  _256
REMARK  100  A    between atoms: _256  and  _257
REMARK  101  A    between atoms: _259  and  _261
REMARK  102  A    between atoms: _261  and  _262
REMARK  103  A    between atoms: _261  and  _264
REMARK  104  A    between atoms: _267  and  _269
REMARK  105  A    between atoms: _269  and  _270
REMARK  106  A    between atoms: _269  and  _272
REMARK  107  A    between atoms: _272  and  _273
REMARK  108  A    between atoms: _276  and  _278
REMARK  109  A    between atoms: _278  and  _279
REMARK  110  A    between atoms: _278  and  _281
REMARK  111  A    between atoms: _281  and  _282
REMARK  112  A    between atoms: _285  and  _287
REMARK  113  A    between atoms: _287  and  _288
REMARK  114  A    between atoms: _287  and  _290
REMARK  115  A    between atoms: _293  and  _295
REMARK  116  A    between atoms: _295  and  _296
REMARK  117  A    between atoms: _295  and  _298
REMARK  118  A    between atoms: _301  and  _303
REMARK  119  A    between atoms: _303  and  _304
REMARK  120  A    between atoms: _303  and  _306
REMARK  121  A    between atoms: _306  and  _307
REMARK  122  A    between atoms: _310  and  _312
REMARK  123  A    between atoms: _312  and  _313
REMARK  124  A    between atoms: _312  and  _315
REMARK  125  A    between atoms: _315  and  _316
REMARK  126  A    between atoms: _319  and  _321
REMARK  127  A    between atoms: _321  and  _322
REMARK  128  A    between atoms: _321  and  _324
REMARK  129  A    between atoms: _327  and  _329
REMARK  130  A    between atoms: _329  and  _330
REMARK  131  A    between atoms: _329  and  _332
REMARK  132  A    between atoms: _332  and  _333
REMARK  133  A    between atoms: _339  and  _341
REMARK  134  A    between atoms: _341  and  _342
REMARK  135  A    between atoms: _341  and  _344
REMARK  136  A    between atoms: _344  and  _345
REMARK  137  A    between atoms: _351  and  _353
REMARK  138  A    between atoms: _353  and  _354
REMARK  139  A    between atoms: _356  and  _358
REMARK  140  A    between atoms: _358  and  _359
REMARK  141  A    between atoms: _358  and  _361
REMARK  142  A    between atoms: _361  and  _362
REMARK  143  A    between atoms: _362  and  _363
REMARK  144  A    between atoms: _366  and  _368
REMARK  145  A    between atoms: _368  and  _369
REMARK  146  A    between atoms: _368  and  _371
REMARK  147  A    between atoms: _371  and  _372
REMARK  148  A    between atoms: _372  and  _373
REMARK  149  A    between atoms: _373  and  _374
REMARK  150  A    between atoms: _374  and  _375
REMARK  151  A    between atoms: _379  and  _381
REMARK  152  A    between atoms: _381  and  _382
REMARK  153  A    between atoms: _381  and  _384
REMARK  154  A    between atoms: _384  and  _385
REMARK  155  A    between atoms: _388  and  _390
REMARK  156  A    between atoms: _390  and  _391
REMARK  157  A    between atoms: _390  and  _393
REMARK  158  A    between atoms: _393  and  _394
REMARK  159  A    between atoms: _399  and  _400
REMARK  160  A    between atoms: _402  and  _404
REMARK  161  A    between atoms: _404  and  _405
REMARK  162  A    between atoms: _404  and  _407
REMARK  163  A    between atoms: _407  and  _408
REMARK  164  A    between atoms: _408  and  _409
REMARK  165  A    between atoms: _414  and  _416
REMARK  166  A    between atoms: _416  and  _417
REMARK  167  A    between atoms: _416  and  _419
REMARK  168  A    between atoms: _419  and  _420
REMARK  169  A    between atoms: _423  and  _425
REMARK  170  A    between atoms: _425  and  _426
REMARK  171  A    between atoms: _425  and  _428
REMARK  172  A    between atoms: _428  and  _429
REMARK  173  A    between atoms: _432  and  _434
REMARK  174  A    between atoms: _434  and  _435
REMARK  175  A    between atoms: _434  and  _437
REMARK  176  A    between atoms: _440  and  _442
REMARK  177  A    between atoms: _442  and  _443
REMARK  178  A    between atoms: _445  and  _447
REMARK  179  A    between atoms: _447  and  _448
REMARK  180  A    between atoms: _447  and  _450
REMARK  181  A    between atoms: _454  and  _455
REMARK  182  A    between atoms: _460  and  _462
REMARK  183  A    between atoms: _462  and  _463
REMARK  184  A    between atoms: _462  and  _465
REMARK  185  A    between atoms: _465  and  _466
REMARK  186  A    between atoms: _469  and  _471
REMARK  187  A    between atoms: _471  and  _472
REMARK  188  A    between atoms: _471  and  _474
REMARK  189  A    between atoms: _477  and  _479
REMARK  190  A    between atoms: _479  and  _480
REMARK  191  A    between atoms: _479  and  _482
REMARK  192  A    between atoms: _482  and  _483
REMARK  193  A    between atoms: _483  and  _484
REMARK  194  A    between atoms: _484  and  _485
REMARK  195  A    between atoms: _494  and  _496
REMARK  196  A    between atoms: _496  and  _497
REMARK  197  A    between atoms: _496  and  _499
REMARK  198  A    between atoms: _499  and  _500
REMARK  199  A    between atoms: _500  and  _501
REMARK  200  A    between atoms: _504  and  _506
REMARK  201  A    between atoms: _506  and  _507
REMARK  202  A    between atoms: _506  and  _509
REMARK  203  A    between atoms: _509  and  _510
REMARK  204  A    between atoms: _513  and  _515
REMARK  205  A    between atoms: _515  and  _516
REMARK  206  A    between atoms: _519  and  _521
REMARK  207  A    between atoms: _521  and  _522
REMARK  208  A    between atoms: _521  and  _524
REMARK  209  A    between atoms: _524  and  _525
REMARK  210  A    between atoms: _525  and  _526
REMARK  211  A    between atoms: _528  and  _530
REMARK  212  A    between atoms: _530  and  _531
REMARK  213  A    between atoms: _530  and  _533
REMARK  214  A    between atoms: _533  and  _534
REMARK  215  A    between atoms: _536  and  _538
REMARK  216  A    between atoms: _538  and  _539
REMARK  217  A    between atoms: _538  and  _541
REMARK  218  A    between atoms: _541  and  _542
REMARK  219  A    between atoms: _544  and  _546
REMARK  220  A    between atoms: _546  and  _547
REMARK  221  A    between atoms: _546  and  _549
REMARK  222  A    between atoms: _549  and  _550
REMARK  223  A    between atoms: _550  and  _551
REMARK  224  A    between atoms: _551  and  _552
REMARK  225  A    between atoms: _561  and  _563
REMARK  226  A    between atoms: _563  and  _564
REMARK  227  A    between atoms: _563  and  _566
REMARK  228  A    between atoms: _566  and  _567
REMARK  229  A    between atoms: _572  and  _574
REMARK  230  A    between atoms: _574  and  _575
REMARK  231  A    between atoms: _574  and  _577
REMARK  232  A    between atoms: _577  and  _578
REMARK  233  A    between atoms: _581  and  _583
REMARK  234  A    between atoms: _583  and  _584
REMARK  235  A    between atoms: _583  and  _586
REMARK  236  A    between atoms: _586  and  _587
REMARK                            x       y       z     vdW  Elec       q    Type
REMARK                         _______ _______ _______ _____ _____    ______ ____
ROOT
ATOM      1  O   HOH     1      10.689   9.096   3.646  0.00  0.00    +0.000 OA
ENDROOT
TORSDOF 0
REMARK  Name = ../refined-set-2016/3coy/3coy_pocket.pdb
REMARK  236 active torsions:
REMARK  status: ('A' for Active; 'I' for Inactive)
REMARK    1  A    between atoms: _1  and  _3
REMARK    2  A    between atoms: _3  and  _4
REMARK    3  A    between atoms: _3  and  _6
REMARK    4  A    between atoms: _10  and  _11
REMARK    5  A    between atoms: _16  and  _18
REMARK    6  A    between atoms: _18  and  _19
REMARK    7  A    between atoms: _18  and  _21
REMARK    8  A    between atoms: _21  and  _22
REMARK    9  A    between atoms: _25  and  _27
REMARK   10  A    between atoms: _27  and  _28
REMARK   11  A    between atoms: _27  and  _30
REMARK   12  A    between atoms: _30  and  _31
REMARK   13  A    between atoms: _31  and  _32
REMARK   14  A    between atoms: _34  and  _36
REMARK   15  A    between atoms: _36  and  _37
REMARK   16  A    between atoms: _39  and  _41
REMARK   17  A    between atoms: _41  and  _42
REMARK   18  A    between atoms: _45  and  _47
REMARK   19  A    between atoms: _47  and  _48
REMARK   20  A    between atoms: _47  and  _50
REMARK   21  A    between atoms: _50  and  _51
REMARK   22  A    between atoms: _54  and  _56
REMARK   23  A    between atoms: _56  and  _57
REMARK   24  A    between atoms: _56  and  _59
REMARK   25  A    between atoms: _59  and  _60
REMARK   26  A    between atoms: _65  and  _67
REMARK   27  A    between atoms: _67  and  _68
REMARK   28  A    between atoms: _67  and  _70
REMARK   29  A    between atoms: _70  and  _71
REMARK   30  A    between atoms: _71  and  _72
REMARK   31  A    between atoms: _75  and  _77
REMARK   32  A    between atoms: _77  and  _78
REMARK   33  A    between atoms: _80  and  _82
REMARK   34  A    between atoms: _82  and  _83
REMARK   35  A    between atoms: _82  and  _85
REMARK   36  A    between atoms: _85  and  _86
REMARK   37  A    between atoms: _91  and  _93
REMARK   38  A    between atoms: _93  and  _94
REMARK   39  A    between atoms: _93  and  _96
REMARK   40  A    between atoms: _96  and  _97
REMARK   41  A    between atoms: _100  and  _102
REMARK   42  A    between atoms: _102  and  _103
REMARK   43  A    between atoms: _106  and  _108
REMARK   44  A    between atoms: _108  and  _109
REMARK   45  A    between atoms: _108  and  _111
REMARK   46  A    between atoms: _111  and  _112
REMARK   47  A    between atoms: _115  and  _117
REMARK   48  A    between atoms: _117  and  _118
REMARK   49  A    between atoms: _117  and  _120
REMARK   50  A    between atoms: _123  and  _125
REMARK   51  A    between atoms: _125  and  _126
REMARK   52  A    between atoms: _125  and  _128
REMARK   53  A    between atoms: _131  and  _133
REMARK   54  A    between atoms: _133  and  _134
REMARK   55  A    between atoms: _133  and  _136
REMARK   56  A    between atoms: _136  and  _137
REMARK   57  A    between atoms: _139  and  _141
REMARK   58  A    between atoms: _141  and  _142
REMARK   59  A    between atoms: _141  and  _144
REMARK   60  A    between atoms: _144  and  _145
REMARK   61  A    between atoms: _148  and  _150
REMARK   62  A    between atoms: _150  and  _151
REMARK   63  A    between atoms: _150  and  _153
REMARK   64  A    between atoms: _153  and  _154
REMARK   65  A    between atoms: _160  and  _162
REMARK   66  A    between atoms: _162  and  _163
REMARK   67  A    between atoms: _162  and  _165
REMARK   68  A    between atoms: _168  and  _170
REMARK   69  A    between atoms: _170  and  _171
REMARK   70  A    between atoms: _170  and  _173
REMARK   71  A    between atoms: _173  and  _174
REMARK   72  A    between atoms: _179  and  _181
REMARK   73  A    between atoms: _181  and  _182
REMARK   74  A    between atoms: _181  and  _184
REMARK   75  A    between atoms: _184  and  _185
REMARK   76  A    between atoms: _185  and  _186
REMARK   77  A    between atoms: _191  and  _193
REMARK   78  A    between atoms: _193  and  _194
REMARK   79  A    between atoms: _193  and  _196
REMARK   80  A    between atoms: _196  and  _197
REMARK   81  A    between atoms: _203  and  _205
REMARK   82  A    between atoms: _205  and  _206
REMARK   83  A    between atoms: _205  and  _208
REMARK   84  A    between atoms: _208  and  _209
REMARK   85  A    between atoms: _214  and  _215
REMARK   86  A    between atoms: _217  and  _219
REMARK   87  A    between atoms: _219  and  _220
REMARK   88  A    between atoms: _219  and  _222
REMARK   89  A    between atoms: _222  and  _223
REMARK   90  A    between atoms: _228  and  _229
REMARK   91  A    between atoms: _231  and  _233
REMARK   92  A    between atoms: _233  and  _234
REMARK   93  A    between atoms: _233  and  _236
REMARK   94  A    between atoms: _236  and  _237
REMARK   95  A    between atoms: _242  and  _244
REMARK   96  A    between atoms: _244  and  _245
REMARK   97  A    between atoms: _244  and  _247
REMARK   98  A    between atoms: _247  and  _248
REMARK   99  A    between atoms: _254  and  _256
REMARK  100  A    between atoms: _256  and  _257
REMARK  101  A    between atoms: _259  and  _261
REMARK  102  A    between atoms: _261  and  _262
REMARK  103  A    between atoms: _261  and  _264
REMARK  104  A    between atoms: _267  and  _269
REMARK  105  A    between atoms: _269  and  _270
REMARK  106  A    between atoms: _269  and  _272
REMARK  107  A    between atoms: _272  and  _273
REMARK  108  A    between atoms: _276  and  _278
REMARK  109  A    between atoms: _278  and  _279
REMARK  110  A    between atoms: _278  and  _281
REMARK  111  A    between atoms: _281  and  _282
REMARK  112  A    between atoms: _285  and  _287
REMARK  113  A    between atoms: _287  and  _288
REMARK  114  A    between atoms: _287  and  _290
REMARK  115  A    between atoms: _293  and  _295
REMARK  116  A    between atoms: _295  and  _296
REMARK  117  A    between atoms: _295  and  _298
REMARK  118  A    between atoms: _301  and  _303
REMARK  119  A    between atoms: _303  and  _304
REMARK  120  A    between atoms: _303  and  _306
REMARK  121  A    between atoms: _306  and  _307
REMARK  122  A    between atoms: _310  and  _312
REMARK  123  A    between atoms: _312  and  _313
REMARK  124  A    between atoms: _312  and  _315
REMARK  125  A    between atoms: _315  and  _316
REMARK  126  A    between atoms: _319  and  _321
REMARK  127  A    between atoms: _321  and  _322
REMARK  128  A    between atoms: _321  and  _324
REMARK  129  A    between atoms: _327  and  _329
REMARK  130  A    between atoms: _329  and  _330
REMARK  131  A    between atoms: _329  and  _332
REMARK  132  A    between atoms: _332  and  _333
REMARK  133  A    between atoms: _339  and  _341
REMARK  134  A    between atoms: _341  and  _342
REMARK  135  A    between atoms: _341  and  _344
REMARK  136  A    between atoms: _344  and  _345
REMARK  137  A    between atoms: _351  and  _353
REMARK  138  A    between atoms: _353  and  _354
REMARK  139  A    between atoms: _356  and  _358
REMARK  140  A    between atoms: _358  and  _359
REMARK  141  A    between atoms: _358  and  _361
REMARK  142  A    between atoms: _361  and  _362
REMARK  143  A    between atoms: _362  and  _363
REMARK  144  A    between atoms: _366  and  _368
REMARK  145  A    between atoms: _368  and  _369
REMARK  146  A    between atoms: _368  and  _371
REMARK  147  A    between atoms: _371  and  _372
REMARK  148  A    between atoms: _372  and  _373
REMARK  149  A    between atoms: _373  and  _374
REMARK  150  A    between atoms: _374  and  _375
REMARK  151  A    between atoms: _379  and  _381
REMARK  152  A    between atoms: _381  and  _382
REMARK  153  A    between atoms: _381  and  _384
REMARK  154  A    between atoms: _384  and  _385
REMARK  155  A    between atoms: _388  and  _390
REMARK  156  A    between atoms: _390  and  _391
REMARK  157  A    between atoms: _390  and  _393
REMARK  158  A    between atoms: _393  and  _394
REMARK  159  A    between atoms: _399  and  _400
REMARK  160  A    between atoms: _402  and  _404
REMARK  161  A    between atoms: _404  and  _405
REMARK  162  A    between atoms: _404  and  _407
REMARK  163  A    between atoms: _407  and  _408
REMARK  164  A    between atoms: _408  and  _409
REMARK  165  A    between atoms: _414  and  _416
REMARK  166  A    between atoms: _416  and  _417
REMARK  167  A    between atoms: _416  and  _419
REMARK  168  A    between atoms: _419  and  _420
REMARK  169  A    between atoms: _423  and  _425
REMARK  170  A    between atoms: _425  and  _426
REMARK  171  A    between atoms: _425  and  _428
REMARK  172  A    between atoms: _428  and  _429
REMARK  173  A    between atoms: _432  and  _434
REMARK  174  A    between atoms: _434  and  _435
REMARK  175  A    between atoms: _434  and  _437
REMARK  176  A    between atoms: _440  and  _442
REMARK  177  A    between atoms: _442  and  _443
REMARK  178  A    between atoms: _445  and  _447
REMARK  179  A    between atoms: _447  and  _448
REMARK  180  A    between atoms: _447  and  _450
REMARK  181  A    between atoms: _454  and  _455
REMARK  182  A    between atoms: _460  and  _462
REMARK  183  A    between atoms: _462  and  _463
REMARK  184  A    between atoms: _462  and  _465
REMARK  185  A    between atoms: _465  and  _466
REMARK  186  A    between atoms: _469  and  _471
REMARK  187  A    between atoms: _471  and  _472
REMARK  188  A    between atoms: _471  and  _474
REMARK  189  A    between atoms: _477  and  _479
REMARK  190  A    between atoms: _479  and  _480
REMARK  191  A    between atoms: _479  and  _482
REMARK  192  A    between atoms: _482  and  _483
REMARK  193  A    between atoms: _483  and  _484
REMARK  194  A    between atoms: _484  and  _485
REMARK  195  A    between atoms: _494  and  _496
REMARK  196  A    between atoms: _496  and  _497
REMARK  197  A    between atoms: _496  and  _499
REMARK  198  A    between atoms: _499  and  _500
REMARK  199  A    between atoms: _500  and  _501
REMARK  200  A    between atoms: _504  and  _506
REMARK  201  A    between atoms: _506  and  _507
REMARK  202  A    between atoms: _506  and  _509
REMARK  203  A    between atoms: _509  and  _510
REMARK  204  A    between atoms: _513  and  _515
REMARK  205  A    between atoms: _515  and  _516
REMARK  206  A    between atoms: _519  and  _521
REMARK  207  A    between atoms: _521  and  _522
REMARK  208  A    between atoms: _521  and  _524
REMARK  209  A    between atoms: _524  and  _525
REMARK  210  A    between atoms: _525  and  _526
REMARK  211  A    between atoms: _528  and  _530
REMARK  212  A    between atoms: _530  and  _531
REMARK  213  A    between atoms: _530  and  _533
REMARK  214  A    between atoms: _533  and  _534
REMARK  215  A    between atoms: _536  and  _538
REMARK  216  A    between atoms: _538  and  _539
REMARK  217  A    between atoms: _538  and  _541
REMARK  218  A    between atoms: _541  and  _542
REMARK  219  A    between atoms: _544  and  _546
REMARK  220  A    between atoms: _546  and  _547
REMARK  221  A    between atoms: _546  and  _549
REMARK  222  A    between atoms: _549  and  _550
REMARK  223  A    between atoms: _550  and  _551
REMARK  224  A    between atoms: _551  and  _552
REMARK  225  A    between atoms: _561  and  _563
REMARK  226  A    between atoms: _563  and  _564
REMARK  227  A    between atoms: _563  and  _566
REMARK  228  A    between atoms: _566  and  _567
REMARK  229  A    between atoms: _572  and  _574
REMARK  230  A    between atoms: _574  and  _575
REMARK  231  A    between atoms: _574  and  _577
REMARK  232  A    between atoms: _577  and  _578
REMARK  233  A    between atoms: _581  and  _583
REMARK  234  A    between atoms: _583  and  _584
REMARK  235  A    between atoms: _583  and  _586
REMARK  236  A    between atoms: _586  and  _587
REMARK                            x       y       z     vdW  Elec       q    Type
REMARK                         _______ _______ _______ _____ _____    ______ ____
ROOT
ATOM      1  O   HOH     1      22.606  10.394   5.907  0.00  0.00    +0.000 OA
ENDROOT
TORSDOF 0
REMARK  Name = ../refined-set-2016/3coy/3coy_pocket.pdb
REMARK  236 active torsions:
REMARK  status: ('A' for Active; 'I' for Inactive)
REMARK    1  A    between atoms: _1  and  _3
REMARK    2  A    between atoms: _3  and  _4
REMARK    3  A    between atoms: _3  and  _6
REMARK    4  A    between atoms: _10  and  _11
REMARK    5  A    between atoms: _16  and  _18
REMARK    6  A    between atoms: _18  and  _19
REMARK    7  A    between atoms: _18  and  _21
REMARK    8  A    between atoms: _21  and  _22
REMARK    9  A    between atoms: _25  and  _27
REMARK   10  A    between atoms: _27  and  _28
REMARK   11  A    between atoms: _27  and  _30
REMARK   12  A    between atoms: _30  and  _31
REMARK   13  A    between atoms: _31  and  _32
REMARK   14  A    between atoms: _34  and  _36
REMARK   15  A    between atoms: _36  and  _37
REMARK   16  A    between atoms: _39  and  _41
REMARK   17  A    between atoms: _41  and  _42
REMARK   18  A    between atoms: _45  and  _47
REMARK   19  A    between atoms: _47  and  _48
REMARK   20  A    between atoms: _47  and  _50
REMARK   21  A    between atoms: _50  and  _51
REMARK   22  A    between atoms: _54  and  _56
REMARK   23  A    between atoms: _56  and  _57
REMARK   24  A    between atoms: _56  and  _59
REMARK   25  A    between atoms: _59  and  _60
REMARK   26  A    between atoms: _65  and  _67
REMARK   27  A    between atoms: _67  and  _68
REMARK   28  A    between atoms: _67  and  _70
REMARK   29  A    between atoms: _70  and  _71
REMARK   30  A    between atoms: _71  and  _72
REMARK   31  A    between atoms: _75  and  _77
REMARK   32  A    between atoms: _77  and  _78
REMARK   33  A    between atoms: _80  and  _82
REMARK   34  A    between atoms: _82  and  _83
REMARK   35  A    between atoms: _82  and  _85
REMARK   36  A    between atoms: _85  and  _86
REMARK   37  A    between atoms: _91  and  _93
REMARK   38  A    between atoms: _93  and  _94
REMARK   39  A    between atoms: _93  and  _96
REMARK   40  A    between atoms: _96  and  _97
REMARK   41  A    between atoms: _100  and  _102
REMARK   42  A    between atoms: _102  and  _103
REMARK   43  A    between atoms: _106  and  _108
REMARK   44  A    between atoms: _108  and  _109
REMARK   45  A    between atoms: _108  and  _111
REMARK   46  A    between atoms: _111  and  _112
REMARK   47  A    between atoms: _115  and  _117
REMARK   48  A    between atoms: _117  and  _118
REMARK   49  A    between atoms: _117  and  _120
REMARK   50  A    between atoms: _123  and  _125
REMARK   51  A    between atoms: _125  and  _126
REMARK   52  A    between atoms: _125  and  _128
REMARK   53  A    between atoms: _131  and  _133
REMARK   54  A    between atoms: _133  and  _134
REMARK   55  A    between atoms: _133  and  _136
REMARK   56  A    between atoms: _136  and  _137
REMARK   57  A    between atoms: _139  and  _141
REMARK   58  A    between atoms: _141  and  _142
REMARK   59  A    between atoms: _141  and  _144
REMARK   60  A    between atoms: _144  and  _145
REMARK   61  A    between atoms: _148  and  _150
REMARK   62  A    between atoms: _150  and  _151
REMARK   63  A    between atoms: _150  and  _153
REMARK   64  A    between atoms: _153  and  _154
REMARK   65  A    between atoms: _160  and  _162
REMARK   66  A    between atoms: _162  and  _163
REMARK   67  A    between atoms: _162  and  _165
REMARK   68  A    between atoms: _168  and  _170
REMARK   69  A    between atoms: _170  and  _171
REMARK   70  A    between atoms: _170  and  _173
REMARK   71  A    between atoms: _173  and  _174
REMARK   72  A    between atoms: _179  and  _181
REMARK   73  A    between atoms: _181  and  _182
REMARK   74  A    between atoms: _181  and  _184
REMARK   75  A    between atoms: _184  and  _185
REMARK   76  A    between atoms: _185  and  _186
REMARK   77  A    between atoms: _191  and  _193
REMARK   78  A    between atoms: _193  and  _194
REMARK   79  A    between atoms: _193  and  _196
REMARK   80  A    between atoms: _196  and  _197
REMARK   81  A    between atoms: _203  and  _205
REMARK   82  A    between atoms: _205  and  _206
REMARK   83  A    between atoms: _205  and  _208
REMARK   84  A    between atoms: _208  and  _209
REMARK   85  A    between atoms: _214  and  _215
REMARK   86  A    between atoms: _217  and  _219
REMARK   87  A    between atoms: _219  and  _220
REMARK   88  A    between atoms: _219  and  _222
REMARK   89  A    between atoms: _222  and  _223
REMARK   90  A    between atoms: _228  and  _229
REMARK   91  A    between atoms: _231  and  _233
REMARK   92  A    between atoms: _233  and  _234
REMARK   93  A    between atoms: _233  and  _236
REMARK   94  A    between atoms: _236  and  _237
REMARK   95  A    between atoms: _242  and  _244
REMARK   96  A    between atoms: _244  and  _245
REMARK   97  A    between atoms: _244  and  _247
REMARK   98  A    between atoms: _247  and  _248
REMARK   99  A    between atoms: _254  and  _256
REMARK  100  A    between atoms: _256  and  _257
REMARK  101  A    between atoms: _259  and  _261
REMARK  102  A    between atoms: _261  and  _262
REMARK  103  A    between atoms: _261  and  _264
REMARK  104  A    between atoms: _267  and  _269
REMARK  105  A    between atoms: _269  and  _270
REMARK  106  A    between atoms: _269  and  _272
REMARK  107  A    between atoms: _272  and  _273
REMARK  108  A    between atoms: _276  and  _278
REMARK  109  A    between atoms: _278  and  _279
REMARK  110  A    between atoms: _278  and  _281
REMARK  111  A    between atoms: _281  and  _282
REMARK  112  A    between atoms: _285  and  _287
REMARK  113  A    between atoms: _287  and  _288
REMARK  114  A    between atoms: _287  and  _290
REMARK  115  A    between atoms: _293  and  _295
REMARK  116  A    between atoms: _295  and  _296
REMARK  117  A    between atoms: _295  and  _298
REMARK  118  A    between atoms: _301  and  _303
REMARK  119  A    between atoms: _303  and  _304
REMARK  120  A    between atoms: _303  and  _306
REMARK  121  A    between atoms: _306  and  _307
REMARK  122  A    between atoms: _310  and  _312
REMARK  123  A    between atoms: _312  and  _313
REMARK  124  A    between atoms: _312  and  _315
REMARK  125  A    between atoms: _315  and  _316
REMARK  126  A    between atoms: _319  and  _321
REMARK  127  A    between atoms: _321  and  _322
REMARK  128  A    between atoms: _321  and  _324
REMARK  129  A    between atoms: _327  and  _329
REMARK  130  A    between atoms: _329  and  _330
REMARK  131  A    between atoms: _329  and  _332
REMARK  132  A    between atoms: _332  and  _333
REMARK  133  A    between atoms: _339  and  _341
REMARK  134  A    between atoms: _341  and  _342
REMARK  135  A    between atoms: _341  and  _344
REMARK  136  A    between atoms: _344  and  _345
REMARK  137  A    between atoms: _351  and  _353
REMARK  138  A    between atoms: _353  and  _354
REMARK  139  A    between atoms: _356  and  _358
REMARK  140  A    between atoms: _358  and  _359
REMARK  141  A    between atoms: _358  and  _361
REMARK  142  A    between atoms: _361  and  _362
REMARK  143  A    between atoms: _362  and  _363
REMARK  144  A    between atoms: _366  and  _368
REMARK  145  A    between atoms: _368  and  _369
REMARK  146  A    between atoms: _368  and  _371
REMARK  147  A    between atoms: _371  and  _372
REMARK  148  A    between atoms: _372  and  _373
REMARK  149  A    between atoms: _373  and  _374
REMARK  150  A    between atoms: _374  and  _375
REMARK  151  A    between atoms: _379  and  _381
REMARK  152  A    between atoms: _381  and  _382
REMARK  153  A    between atoms: _381  and  _384
REMARK  154  A    between atoms: _384  and  _385
REMARK  155  A    between atoms: _388  and  _390
REMARK  156  A    between atoms: _390  and  _391
REMARK  157  A    between atoms: _390  and  _393
REMARK  158  A    between atoms: _393  and  _394
REMARK  159  A    between atoms: _399  and  _400
REMARK  160  A    between atoms: _402  and  _404
REMARK  161  A    between atoms: _404  and  _405
REMARK  162  A    between atoms: _404  and  _407
REMARK  163  A    between atoms: _407  and  _408
REMARK  164  A    between atoms: _408  and  _409
REMARK  165  A    between atoms: _414  and  _416
REMARK  166  A    between atoms: _416  and  _417
REMARK  167  A    between atoms: _416  and  _419
REMARK  168  A    between atoms: _419  and  _420
REMARK  169  A    between atoms: _423  and  _425
REMARK  170  A    between atoms: _425  and  _426
REMARK  171  A    between atoms: _425  and  _428
REMARK  172  A    between atoms: _428  and  _429
REMARK  173  A    between atoms: _432  and  _434
REMARK  174  A    between atoms: _434  and  _435
REMARK  175  A    between atoms: _434  and  _437
REMARK  176  A    between atoms: _440  and  _442
REMARK  177  A    between atoms: _442  and  _443
REMARK  178  A    between atoms: _445  and  _447
REMARK  179  A    between atoms: _447  and  _448
REMARK  180  A    between atoms: _447  and  _450
REMARK  181  A    between atoms: _454  and  _455
REMARK  182  A    between atoms: _460  and  _462
REMARK  183  A    between atoms: _462  and  _463
REMARK  184  A    between atoms: _462  and  _465
REMARK  185  A    between atoms: _465  and  _466
REMARK  186  A    between atoms: _469  and  _471
REMARK  187  A    between atoms: _471  and  _472
REMARK  188  A    between atoms: _471  and  _474
REMARK  189  A    between atoms: _477  and  _479
REMARK  190  A    between atoms: _479  and  _480
REMARK  191  A    between atoms: _479  and  _482
REMARK  192  A    between atoms: _482  and  _483
REMARK  193  A    between atoms: _483  and  _484
REMARK  194  A    between atoms: _484  and  _485
REMARK  195  A    between atoms: _494  and  _496
REMARK  196  A    between atoms: _496  and  _497
REMARK  197  A    between atoms: _496  and  _499
REMARK  198  A    between atoms: _499  and  _500
REMARK  199  A    between atoms: _500  and  _501
REMARK  200  A    between atoms: _504  and  _506
REMARK  201  A    between atoms: _506  and  _507
REMARK  202  A    between atoms: _506  and  _509
REMARK  203  A    between atoms: _509  and  _510
REMARK  204  A    between atoms: _513  and  _515
REMARK  205  A    between atoms: _515  and  _516
REMARK  206  A    between atoms: _519  and  _521
REMARK  207  A    between atoms: _521  and  _522
REMARK  208  A    between atoms: _521  and  _524
REMARK  209  A    between atoms: _524  and  _525
REMARK  210  A    between atoms: _525  and  _526
REMARK  211  A    between atoms: _528  and  _530
REMARK  212  A    between atoms: _530  and  _531
REMARK  213  A    between atoms: _530  and  _533
REMARK  214  A    between atoms: _533  and  _534
REMARK  215  A    between atoms: _536  and  _538
REMARK  216  A    between atoms: _538  and  _539
REMARK  217  A    between atoms: _538  and  _541
REMARK  218  A    between atoms: _541  and  _542
REMARK  219  A    between atoms: _544  and  _546
REMARK  220  A    between atoms: _546  and  _547
REMARK  221  A    between atoms: _546  and  _549
REMARK  222  A    between atoms: _549  and  _550
REMARK  223  A    between atoms: _550  and  _551
REMARK  224  A    between atoms: _551  and  _552
REMARK  225  A    between atoms: _561  and  _563
REMARK  226  A    between atoms: _563  and  _564
REMARK  227  A    between atoms: _563  and  _566
REMARK  228  A    between atoms: _566  and  _567
REMARK  229  A    between atoms: _572  and  _574
REMARK  230  A    between atoms: _574  and  _575
REMARK  231  A    between atoms: _574  and  _577
REMARK  232  A    between atoms: _577  and  _578
REMARK  233  A    between atoms: _581  and  _583
REMARK  234  A    between atoms: _583  and  _584
REMARK  235  A    between atoms: _583  and  _586
REMARK  236  A    between atoms: _586  and  _587
REMARK                            x       y       z     vdW  Elec       q    Type
REMARK                         _______ _______ _______ _____ _____    ______ ____
ROOT
ATOM      1  O   HOH     1      23.235   9.973  -6.559  0.00  0.00    +0.000 OA
ENDROOT
TORSDOF 0
REMARK  Name = ../refined-set-2016/3coy/3coy_pocket.pdb
REMARK  236 active torsions:
REMARK  status: ('A' for Active; 'I' for Inactive)
REMARK    1  A    between atoms: _1  and  _3
REMARK    2  A    between atoms: _3  and  _4
REMARK    3  A    between atoms: _3  and  _6
REMARK    4  A    between atoms: _10  and  _11
REMARK    5  A    between atoms: _16  and  _18
REMARK    6  A    between atoms: _18  and  _19
REMARK    7  A    between atoms: _18  and  _21
REMARK    8  A    between atoms: _21  and  _22
REMARK    9  A    between atoms: _25  and  _27
REMARK   10  A    between atoms: _27  and  _28
REMARK   11  A    between atoms: _27  and  _30
REMARK   12  A    between atoms: _30  and  _31
REMARK   13  A    between atoms: _31  and  _32
REMARK   14  A    between atoms: _34  and  _36
REMARK   15  A    between atoms: _36  and  _37
REMARK   16  A    between atoms: _39  and  _41
REMARK   17  A    between atoms: _41  and  _42
REMARK   18  A    between atoms: _45  and  _47
REMARK   19  A    between atoms: _47  and  _48
REMARK   20  A    between atoms: _47  and  _50
REMARK   21  A    between atoms: _50  and  _51
REMARK   22  A    between atoms: _54  and  _56
REMARK   23  A    between atoms: _56  and  _57
REMARK   24  A    between atoms: _56  and  _59
REMARK   25  A    between atoms: _59  and  _60
REMARK   26  A    between atoms: _65  and  _67
REMARK   27  A    between atoms: _67  and  _68
REMARK   28  A    between atoms: _67  and  _70
REMARK   29  A    between atoms: _70  and  _71
REMARK   30  A    between atoms: _71  and  _72
REMARK   31  A    between atoms: _75  and  _77
REMARK   32  A    between atoms: _77  and  _78
REMARK   33  A    between atoms: _80  and  _82
REMARK   34  A    between atoms: _82  and  _83
REMARK   35  A    between atoms: _82  and  _85
REMARK   36  A    between atoms: _85  and  _86
REMARK   37  A    between atoms: _91  and  _93
REMARK   38  A    between atoms: _93  and  _94
REMARK   39  A    between atoms: _93  and  _96
REMARK   40  A    between atoms: _96  and  _97
REMARK   41  A    between atoms: _100  and  _102
REMARK   42  A    between atoms: _102  and  _103
REMARK   43  A    between atoms: _106  and  _108
REMARK   44  A    between atoms: _108  and  _109
REMARK   45  A    between atoms: _108  and  _111
REMARK   46  A    between atoms: _111  and  _112
REMARK   47  A    between atoms: _115  and  _117
REMARK   48  A    between atoms: _117  and  _118
REMARK   49  A    between atoms: _117  and  _120
REMARK   50  A    between atoms: _123  and  _125
REMARK   51  A    between atoms: _125  and  _126
REMARK   52  A    between atoms: _125  and  _128
REMARK   53  A    between atoms: _131  and  _133
REMARK   54  A    between atoms: _133  and  _134
REMARK   55  A    between atoms: _133  and  _136
REMARK   56  A    between atoms: _136  and  _137
REMARK   57  A    between atoms: _139  and  _141
REMARK   58  A    between atoms: _141  and  _142
REMARK   59  A    between atoms: _141  and  _144
REMARK   60  A    between atoms: _144  and  _145
REMARK   61  A    between atoms: _148  and  _150
REMARK   62  A    between atoms: _150  and  _151
REMARK   63  A    between atoms: _150  and  _153
REMARK   64  A    between atoms: _153  and  _154
REMARK   65  A    between atoms: _160  and  _162
REMARK   66  A    between atoms: _162  and  _163
REMARK   67  A    between atoms: _162  and  _165
REMARK   68  A    between atoms: _168  and  _170
REMARK   69  A    between atoms: _170  and  _171
REMARK   70  A    between atoms: _170  and  _173
REMARK   71  A    between atoms: _173  and  _174
REMARK   72  A    between atoms: _179  and  _181
REMARK   73  A    between atoms: _181  and  _182
REMARK   74  A    between atoms: _181  and  _184
REMARK   75  A    between atoms: _184  and  _185
REMARK   76  A    between atoms: _185  and  _186
REMARK   77  A    between atoms: _191  and  _193
REMARK   78  A    between atoms: _193  and  _194
REMARK   79  A    between atoms: _193  and  _196
REMARK   80  A    between atoms: _196  and  _197
REMARK   81  A    between atoms: _203  and  _205
REMARK   82  A    between atoms: _205  and  _206
REMARK   83  A    between atoms: _205  and  _208
REMARK   84  A    between atoms: _208  and  _209
REMARK   85  A    between atoms: _214  and  _215
REMARK   86  A    between atoms: _217  and  _219
REMARK   87  A    between atoms: _219  and  _220
REMARK   88  A    between atoms: _219  and  _222
REMARK   89  A    between atoms: _222  and  _223
REMARK   90  A    between atoms: _228  and  _229
REMARK   91  A    between atoms: _231  and  _233
REMARK   92  A    between atoms: _233  and  _234
REMARK   93  A    between atoms: _233  and  _236
REMARK   94  A    between atoms: _236  and  _237
REMARK   95  A    between atoms: _242  and  _244
REMARK   96  A    between atoms: _244  and  _245
REMARK   97  A    between atoms: _244  and  _247
REMARK   98  A    between atoms: _247  and  _248
REMARK   99  A    between atoms: _254  and  _256
REMARK  100  A    between atoms: _256  and  _257
REMARK  101  A    between atoms: _259  and  _261
REMARK  102  A    between atoms: _261  and  _262
REMARK  103  A    between atoms: _261  and  _264
REMARK  104  A    between atoms: _267  and  _269
REMARK  105  A    between atoms: _269  and  _270
REMARK  106  A    between atoms: _269  and  _272
REMARK  107  A    between atoms: _272  and  _273
REMARK  108  A    between atoms: _276  and  _278
REMARK  109  A    between atoms: _278  and  _279
REMARK  110  A    between atoms: _278  and  _281
REMARK  111  A    between atoms: _281  and  _282
REMARK  112  A    between atoms: _285  and  _287
REMARK  113  A    between atoms: _287  and  _288
REMARK  114  A    between atoms: _287  and  _290
REMARK  115  A    between atoms: _293  and  _295
REMARK  116  A    between atoms: _295  and  _296
REMARK  117  A    between atoms: _295  and  _298
REMARK  118  A    between atoms: _301  and  _303
REMARK  119  A    between atoms: _303  and  _304
REMARK  120  A    between atoms: _303  and  _306
REMARK  121  A    between atoms: _306  and  _307
REMARK  122  A    between atoms: _310  and  _312
REMARK  123  A    between atoms: _312  and  _313
REMARK  124  A    between atoms: _312  and  _315
REMARK  125  A    between atoms: _315  and  _316
REMARK  126  A    between atoms: _319  and  _321
REMARK  127  A    between atoms: _321  and  _322
REMARK  128  A    between atoms: _321  and  _324
REMARK  129  A    between atoms: _327  and  _329
REMARK  130  A    between atoms: _329  and  _330
REMARK  131  A    between atoms: _329  and  _332
REMARK  132  A    between atoms: _332  and  _333
REMARK  133  A    between atoms: _339  and  _341
REMARK  134  A    between atoms: _341  and  _342
REMARK  135  A    between atoms: _341  and  _344
REMARK  136  A    between atoms: _344  and  _345
REMARK  137  A    between atoms: _351  and  _353
REMARK  138  A    between atoms: _353  and  _354
REMARK  139  A    between atoms: _356  and  _358
REMARK  140  A    between atoms: _358  and  _359
REMARK  141  A    between atoms: _358  and  _361
REMARK  142  A    between atoms: _361  and  _362
REMARK  143  A    between atoms: _362  and  _363
REMARK  144  A    between atoms: _366  and  _368
REMARK  145  A    between atoms: _368  and  _369
REMARK  146  A    between atoms: _368  and  _371
REMARK  147  A    between atoms: _371  and  _372
REMARK  148  A    between atoms: _372  and  _373
REMARK  149  A    between atoms: _373  and  _374
REMARK  150  A    between atoms: _374  and  _375
REMARK  151  A    between atoms: _379  and  _381
REMARK  152  A    between atoms: _381  and  _382
REMARK  153  A    between atoms: _381  and  _384
REMARK  154  A    between atoms: _384  and  _385
REMARK  155  A    between atoms: _388  and  _390
REMARK  156  A    between atoms: _390  and  _391
REMARK  157  A    between atoms: _390  and  _393
REMARK  158  A    between atoms: _393  and  _394
REMARK  159  A    between atoms: _399  and  _400
REMARK  160  A    between atoms: _402  and  _404
REMARK  161  A    between atoms: _404  and  _405
REMARK  162  A    between atoms: _404  and  _407
REMARK  163  A    between atoms: _407  and  _408
REMARK  164  A    between atoms: _408  and  _409
REMARK  165  A    between atoms: _414  and  _416
REMARK  166  A    between atoms: _416  and  _417
REMARK  167  A    between atoms: _416  and  _419
REMARK  168  A    between atoms: _419  and  _420
REMARK  169  A    between atoms: _423  and  _425
REMARK  170  A    between atoms: _425  and  _426
REMARK  171  A    between atoms: _425  and  _428
REMARK  172  A    between atoms: _428  and  _429
REMARK  173  A    between atoms: _432  and  _434
REMARK  174  A    between atoms: _434  and  _435
REMARK  175  A    between atoms: _434  and  _437
REMARK  176  A    between atoms: _440  and  _442
REMARK  177  A    between atoms: _442  and  _443
REMARK  178  A    between atoms: _445  and  _447
REMARK  179  A    between atoms: _447  and  _448
REMARK  180  A    between atoms: _447  and  _450
REMARK  181  A    between atoms: _454  and  _455
REMARK  182  A    between atoms: _460  and  _462
REMARK  183  A    between atoms: _462  and  _463
REMARK  184  A    between atoms: _462  and  _465
REMARK  185  A    between atoms: _465  and  _466
REMARK  186  A    between atoms: _469  and  _471
REMARK  187  A    between atoms: _471  and  _472
REMARK  188  A    between atoms: _471  and  _474
REMARK  189  A    between atoms: _477  and  _479
REMARK  190  A    between atoms: _479  and  _480
REMARK  191  A    between atoms: _479  and  _482
REMARK  192  A    between atoms: _482  and  _483
REMARK  193  A    between atoms: _483  and  _484
REMARK  194  A    between atoms: _484  and  _485
REMARK  195  A    between atoms: _494  and  _496
REMARK  196  A    between atoms: _496  and  _497
REMARK  197  A    between atoms: _496  and  _499
REMARK  198  A    between atoms: _499  and  _500
REMARK  199  A    between atoms: _500  and  _501
REMARK  200  A    between atoms: _504  and  _506
REMARK  201  A    between atoms: _506  and  _507
REMARK  202  A    between atoms: _506  and  _509
REMARK  203  A    between atoms: _509  and  _510
REMARK  204  A    between atoms: _513  and  _515
REMARK  205  A    between atoms: _515  and  _516
REMARK  206  A    between atoms: _519  and  _521
REMARK  207  A    between atoms: _521  and  _522
REMARK  208  A    between atoms: _521  and  _524
REMARK  209  A    between atoms: _524  and  _525
REMARK  210  A    between atoms: _525  and  _526
REMARK  211  A    between atoms: _528  and  _530
REMARK  212  A    between atoms: _530  and  _531
REMARK  213  A    between atoms: _530  and  _533
REMARK  214  A    between atoms: _533  and  _534
REMARK  215  A    between atoms: _536  and  _538
REMARK  216  A    between atoms: _538  and  _539
REMARK  217  A    between atoms: _538  and  _541
REMARK  218  A    between atoms: _541  and  _542
REMARK  219  A    between atoms: _544  and  _546
REMARK  220  A    between atoms: _546  and  _547
REMARK  221  A    between atoms: _546  and  _549
REMARK  222  A    between atoms: _549  and  _550
REMARK  223  A    between atoms: _550  and  _551
REMARK  224  A    between atoms: _551  and  _552
REMARK  225  A    between atoms: _561  and  _563
REMARK  226  A    between atoms: _563  and  _564
REMARK  227  A    between atoms: _563  and  _566
REMARK  228  A    between atoms: _566  and  _567
REMARK  229  A    between atoms: _572  and  _574
REMARK  230  A    between atoms: _574  and  _575
REMARK  231  A    between atoms: _574  and  _577
REMARK  232  A    between atoms: _577  and  _578
REMARK  233  A    between atoms: _581  and  _583
REMARK  234  A    between atoms: _583  and  _584
REMARK  235  A    between atoms: _583  and  _586
REMARK  236  A    between atoms: _586  and  _587
REMARK                            x       y       z     vdW  Elec       q    Type
REMARK                         _______ _______ _______ _____ _____    ______ ____
ROOT
ATOM      1  O   HOH     1      23.239   8.412  -3.837  0.00  0.00    +0.000 OA
ENDROOT
TORSDOF 0
REMARK  Name = ../refined-set-2016/3coy/3coy_pocket.pdb
REMARK  236 active torsions:
REMARK  status: ('A' for Active; 'I' for Inactive)
REMARK    1  A    between atoms: _1  and  _3
REMARK    2  A    between atoms: _3  and  _4
REMARK    3  A    between atoms: _3  and  _6
REMARK    4  A    between atoms: _10  and  _11
REMARK    5  A    between atoms: _16  and  _18
REMARK    6  A    between atoms: _18  and  _19
REMARK    7  A    between atoms: _18  and  _21
REMARK    8  A    between atoms: _21  and  _22
REMARK    9  A    between atoms: _25  and  _27
REMARK   10  A    between atoms: _27  and  _28
REMARK   11  A    between atoms: _27  and  _30
REMARK   12  A    between atoms: _30  and  _31
REMARK   13  A    between atoms: _31  and  _32
REMARK   14  A    between atoms: _34  and  _36
REMARK   15  A    between atoms: _36  and  _37
REMARK   16  A    between atoms: _39  and  _41
REMARK   17  A    between atoms: _41  and  _42
REMARK   18  A    between atoms: _45  and  _47
REMARK   19  A    between atoms: _47  and  _48
REMARK   20  A    between atoms: _47  and  _50
REMARK   21  A    between atoms: _50  and  _51
REMARK   22  A    between atoms: _54  and  _56
REMARK   23  A    between atoms: _56  and  _57
REMARK   24  A    between atoms: _56  and  _59
REMARK   25  A    between atoms: _59  and  _60
REMARK   26  A    between atoms: _65  and  _67
REMARK   27  A    between atoms: _67  and  _68
REMARK   28  A    between atoms: _67  and  _70
REMARK   29  A    between atoms: _70  and  _71
REMARK   30  A    between atoms: _71  and  _72
REMARK   31  A    between atoms: _75  and  _77
REMARK   32  A    between atoms: _77  and  _78
REMARK   33  A    between atoms: _80  and  _82
REMARK   34  A    between atoms: _82  and  _83
REMARK   35  A    between atoms: _82  and  _85
REMARK   36  A    between atoms: _85  and  _86
REMARK   37  A    between atoms: _91  and  _93
REMARK   38  A    between atoms: _93  and  _94
REMARK   39  A    between atoms: _93  and  _96
REMARK   40  A    between atoms: _96  and  _97
REMARK   41  A    between atoms: _100  and  _102
REMARK   42  A    between atoms: _102  and  _103
REMARK   43  A    between atoms: _106  and  _108
REMARK   44  A    between atoms: _108  and  _109
REMARK   45  A    between atoms: _108  and  _111
REMARK   46  A    between atoms: _111  and  _112
REMARK   47  A    between atoms: _115  and  _117
REMARK   48  A    between atoms: _117  and  _118
REMARK   49  A    between atoms: _117  and  _120
REMARK   50  A    between atoms: _123  and  _125
REMARK   51  A    between atoms: _125  and  _126
REMARK   52  A    between atoms: _125  and  _128
REMARK   53  A    between atoms: _131  and  _133
REMARK   54  A    between atoms: _133  and  _134
REMARK   55  A    between atoms: _133  and  _136
REMARK   56  A    between atoms: _136  and  _137
REMARK   57  A    between atoms: _139  and  _141
REMARK   58  A    between atoms: _141  and  _142
REMARK   59  A    between atoms: _141  and  _144
REMARK   60  A    between atoms: _144  and  _145
REMARK   61  A    between atoms: _148  and  _150
REMARK   62  A    between atoms: _150  and  _151
REMARK   63  A    between atoms: _150  and  _153
REMARK   64  A    between atoms: _153  and  _154
REMARK   65  A    between atoms: _160  and  _162
REMARK   66  A    between atoms: _162  and  _163
REMARK   67  A    between atoms: _162  and  _165
REMARK   68  A    between atoms: _168  and  _170
REMARK   69  A    between atoms: _170  and  _171
REMARK   70  A    between atoms: _170  and  _173
REMARK   71  A    between atoms: _173  and  _174
REMARK   72  A    between atoms: _179  and  _181
REMARK   73  A    between atoms: _181  and  _182
REMARK   74  A    between atoms: _181  and  _184
REMARK   75  A    between atoms: _184  and  _185
REMARK   76  A    between atoms: _185  and  _186
REMARK   77  A    between atoms: _191  and  _193
REMARK   78  A    between atoms: _193  and  _194
REMARK   79  A    between atoms: _193  and  _196
REMARK   80  A    between atoms: _196  and  _197
REMARK   81  A    between atoms: _203  and  _205
REMARK   82  A    between atoms: _205  and  _206
REMARK   83  A    between atoms: _205  and  _208
REMARK   84  A    between atoms: _208  and  _209
REMARK   85  A    between atoms: _214  and  _215
REMARK   86  A    between atoms: _217  and  _219
REMARK   87  A    between atoms: _219  and  _220
REMARK   88  A    between atoms: _219  and  _222
REMARK   89  A    between atoms: _222  and  _223
REMARK   90  A    between atoms: _228  and  _229
REMARK   91  A    between atoms: _231  and  _233
REMARK   92  A    between atoms: _233  and  _234
REMARK   93  A    between atoms: _233  and  _236
REMARK   94  A    between atoms: _236  and  _237
REMARK   95  A    between atoms: _242  and  _244
REMARK   96  A    between atoms: _244  and  _245
REMARK   97  A    between atoms: _244  and  _247
REMARK   98  A    between atoms: _247  and  _248
REMARK   99  A    between atoms: _254  and  _256
REMARK  100  A    between atoms: _256  and  _257
REMARK  101  A    between atoms: _259  and  _261
REMARK  102  A    between atoms: _261  and  _262
REMARK  103  A    between atoms: _261  and  _264
REMARK  104  A    between atoms: _267  and  _269
REMARK  105  A    between atoms: _269  and  _270
REMARK  106  A    between atoms: _269  and  _272
REMARK  107  A    between atoms: _272  and  _273
REMARK  108  A    between atoms: _276  and  _278
REMARK  109  A    between atoms: _278  and  _279
REMARK  110  A    between atoms: _278  and  _281
REMARK  111  A    between atoms: _281  and  _282
REMARK  112  A    between atoms: _285  and  _287
REMARK  113  A    between atoms: _287  and  _288
REMARK  114  A    between atoms: _287  and  _290
REMARK  115  A    between atoms: _293  and  _295
REMARK  116  A    between atoms: _295  and  _296
REMARK  117  A    between atoms: _295  and  _298
REMARK  118  A    between atoms: _301  and  _303
REMARK  119  A    between atoms: _303  and  _304
REMARK  120  A    between atoms: _303  and  _306
REMARK  121  A    between atoms: _306  and  _307
REMARK  122  A    between atoms: _310  and  _312
REMARK  123  A    between atoms: _312  and  _313
REMARK  124  A    between atoms: _312  and  _315
REMARK  125  A    between atoms: _315  and  _316
REMARK  126  A    between atoms: _319  and  _321
REMARK  127  A    between atoms: _321  and  _322
REMARK  128  A    between atoms: _321  and  _324
REMARK  129  A    between atoms: _327  and  _329
REMARK  130  A    between atoms: _329  and  _330
REMARK  131  A    between atoms: _329  and  _332
REMARK  132  A    between atoms: _332  and  _333
REMARK  133  A    between atoms: _339  and  _341
REMARK  134  A    between atoms: _341  and  _342
REMARK  135  A    between atoms: _341  and  _344
REMARK  136  A    between atoms: _344  and  _345
REMARK  137  A    between atoms: _351  and  _353
REMARK  138  A    between atoms: _353  and  _354
REMARK  139  A    between atoms: _356  and  _358
REMARK  140  A    between atoms: _358  and  _359
REMARK  141  A    between atoms: _358  and  _361
REMARK  142  A    between atoms: _361  and  _362
REMARK  143  A    between atoms: _362  and  _363
REMARK  144  A    between atoms: _366  and  _368
REMARK  145  A    between atoms: _368  and  _369
REMARK  146  A    between atoms: _368  and  _371
REMARK  147  A    between atoms: _371  and  _372
REMARK  148  A    between atoms: _372  and  _373
REMARK  149  A    between atoms: _373  and  _374
REMARK  150  A    between atoms: _374  and  _375
REMARK  151  A    between atoms: _379  and  _381
REMARK  152  A    between atoms: _381  and  _382
REMARK  153  A    between atoms: _381  and  _384
REMARK  154  A    between atoms: _384  and  _385
REMARK  155  A    between atoms: _388  and  _390
REMARK  156  A    between atoms: _390  and  _391
REMARK  157  A    between atoms: _390  and  _393
REMARK  158  A    between atoms: _393  and  _394
REMARK  159  A    between atoms: _399  and  _400
REMARK  160  A    between atoms: _402  and  _404
REMARK  161  A    between atoms: _404  and  _405
REMARK  162  A    between atoms: _404  and  _407
REMARK  163  A    between atoms: _407  and  _408
REMARK  164  A    between atoms: _408  and  _409
REMARK  165  A    between atoms: _414  and  _416
REMARK  166  A    between atoms: _416  and  _417
REMARK  167  A    between atoms: _416  and  _419
REMARK  168  A    between atoms: _419  and  _420
REMARK  169  A    between atoms: _423  and  _425
REMARK  170  A    between atoms: _425  and  _426
REMARK  171  A    between atoms: _425  and  _428
REMARK  172  A    between atoms: _428  and  _429
REMARK  173  A    between atoms: _432  and  _434
REMARK  174  A    between atoms: _434  and  _435
REMARK  175  A    between atoms: _434  and  _437
REMARK  176  A    between atoms: _440  and  _442
REMARK  177  A    between atoms: _442  and  _443
REMARK  178  A    between atoms: _445  and  _447
REMARK  179  A    between atoms: _447  and  _448
REMARK  180  A    between atoms: _447  and  _450
REMARK  181  A    between atoms: _454  and  _455
REMARK  182  A    between atoms: _460  and  _462
REMARK  183  A    between atoms: _462  and  _463
REMARK  184  A    between atoms: _462  and  _465
REMARK  185  A    between atoms: _465  and  _466
REMARK  186  A    between atoms: _469  and  _471
REMARK  187  A    between atoms: _471  and  _472
REMARK  188  A    between atoms: _471  and  _474
REMARK  189  A    between atoms: _477  and  _479
REMARK  190  A    between atoms: _479  and  _480
REMARK  191  A    between atoms: _479  and  _482
REMARK  192  A    between atoms: _482  and  _483
REMARK  193  A    between atoms: _483  and  _484
REMARK  194  A    between atoms: _484  and  _485
REMARK  195  A    between atoms: _494  and  _496
REMARK  196  A    between atoms: _496  and  _497
REMARK  197  A    between atoms: _496  and  _499
REMARK  198  A    between atoms: _499  and  _500
REMARK  199  A    between atoms: _500  and  _501
REMARK  200  A    between atoms: _504  and  _506
REMARK  201  A    between atoms: _506  and  _507
REMARK  202  A    between atoms: _506  and  _509
REMARK  203  A    between atoms: _509  and  _510
REMARK  204  A    between atoms: _513  and  _515
REMARK  205  A    between atoms: _515  and  _516
REMARK  206  A    between atoms: _519  and  _521
REMARK  207  A    between atoms: _521  and  _522
REMARK  208  A    between atoms: _521  and  _524
REMARK  209  A    between atoms: _524  and  _525
REMARK  210  A    between atoms: _525  and  _526
REMARK  211  A    between atoms: _528  and  _530
REMARK  212  A    between atoms: _530  and  _531
REMARK  213  A    between atoms: _530  and  _533
REMARK  214  A    between atoms: _533  and  _534
REMARK  215  A    between atoms: _536  and  _538
REMARK  216  A    between atoms: _538  and  _539
REMARK  217  A    between atoms: _538  and  _541
REMARK  218  A    between atoms: _541  and  _542
REMARK  219  A    between atoms: _544  and  _546
REMARK  220  A    between atoms: _546  and  _547
REMARK  221  A    between atoms: _546  and  _549
REMARK  222  A    between atoms: _549  and  _550
REMARK  223  A    between atoms: _550  and  _551
REMARK  224  A    between atoms: _551  and  _552
REMARK  225  A    between atoms: _561  and  _563
REMARK  226  A    between atoms: _563  and  _564
REMARK  227  A    between atoms: _563  and  _566
REMARK  228  A    between atoms: _566  and  _567
REMARK  229  A    between atoms: _572  and  _574
REMARK  230  A    between atoms: _574  and  _575
REMARK  231  A    between atoms: _574  and  _577
REMARK  232  A    between atoms: _577  and  _578
REMARK  233  A    between atoms: _581  and  _583
REMARK  234  A    between atoms: _583  and  _584
REMARK  235  A    between atoms: _583  and  _586
REMARK  236  A    between atoms: _586  and  _587
REMARK                            x       y       z     vdW  Elec       q    Type
REMARK                         _______ _______ _______ _____ _____    ______ ____
ROOT
ATOM      1  O   HOH     1      18.437  19.625   6.795  0.00  0.00    +0.000 OA
ENDROOT
TORSDOF 0
REMARK  Name = ../refined-set-2016/3coy/3coy_pocket.pdb
REMARK  236 active torsions:
REMARK  status: ('A' for Active; 'I' for Inactive)
REMARK    1  A    between atoms: _1  and  _3
REMARK    2  A    between atoms: _3  and  _4
REMARK    3  A    between atoms: _3  and  _6
REMARK    4  A    between atoms: _10  and  _11
REMARK    5  A    between atoms: _16  and  _18
REMARK    6  A    between atoms: _18  and  _19
REMARK    7  A    between atoms: _18  and  _21
REMARK    8  A    between atoms: _21  and  _22
REMARK    9  A    between atoms: _25  and  _27
REMARK   10  A    between atoms: _27  and  _28
REMARK   11  A    between atoms: _27  and  _30
REMARK   12  A    between atoms: _30  and  _31
REMARK   13  A    between atoms: _31  and  _32
REMARK   14  A    between atoms: _34  and  _36
REMARK   15  A    between atoms: _36  and  _37
REMARK   16  A    between atoms: _39  and  _41
REMARK   17  A    between atoms: _41  and  _42
REMARK   18  A    between atoms: _45  and  _47
REMARK   19  A    between atoms: _47  and  _48
REMARK   20  A    between atoms: _47  and  _50
REMARK   21  A    between atoms: _50  and  _51
REMARK   22  A    between atoms: _54  and  _56
REMARK   23  A    between atoms: _56  and  _57
REMARK   24  A    between atoms: _56  and  _59
REMARK   25  A    between atoms: _59  and  _60
REMARK   26  A    between atoms: _65  and  _67
REMARK   27  A    between atoms: _67  and  _68
REMARK   28  A    between atoms: _67  and  _70
REMARK   29  A    between atoms: _70  and  _71
REMARK   30  A    between atoms: _71  and  _72
REMARK   31  A    between atoms: _75  and  _77
REMARK   32  A    between atoms: _77  and  _78
REMARK   33  A    between atoms: _80  and  _82
REMARK   34  A    between atoms: _82  and  _83
REMARK   35  A    between atoms: _82  and  _85
REMARK   36  A    between atoms: _85  and  _86
REMARK   37  A    between atoms: _91  and  _93
REMARK   38  A    between atoms: _93  and  _94
REMARK   39  A    between atoms: _93  and  _96
REMARK   40  A    between atoms: _96  and  _97
REMARK   41  A    between atoms: _100  and  _102
REMARK   42  A    between atoms: _102  and  _103
REMARK   43  A    between atoms: _106  and  _108
REMARK   44  A    between atoms: _108  and  _109
REMARK   45  A    between atoms: _108  and  _111
REMARK   46  A    between atoms: _111  and  _112
REMARK   47  A    between atoms: _115  and  _117
REMARK   48  A    between atoms: _117  and  _118
REMARK   49  A    between atoms: _117  and  _120
REMARK   50  A    between atoms: _123  and  _125
REMARK   51  A    between atoms: _125  and  _126
REMARK   52  A    between atoms: _125  and  _128
REMARK   53  A    between atoms: _131  and  _133
REMARK   54  A    between atoms: _133  and  _134
REMARK   55  A    between atoms: _133  and  _136
REMARK   56  A    between atoms: _136  and  _137
REMARK   57  A    between atoms: _139  and  _141
REMARK   58  A    between atoms: _141  and  _142
REMARK   59  A    between atoms: _141  and  _144
REMARK   60  A    between atoms: _144  and  _145
REMARK   61  A    between atoms: _148  and  _150
REMARK   62  A    between atoms: _150  and  _151
REMARK   63  A    between atoms: _150  and  _153
REMARK   64  A    between atoms: _153  and  _154
REMARK   65  A    between atoms: _160  and  _162
REMARK   66  A    between atoms: _162  and  _163
REMARK   67  A    between atoms: _162  and  _165
REMARK   68  A    between atoms: _168  and  _170
REMARK   69  A    between atoms: _170  and  _171
REMARK   70  A    between atoms: _170  and  _173
REMARK   71  A    between atoms: _173  and  _174
REMARK   72  A    between atoms: _179  and  _181
REMARK   73  A    between atoms: _181  and  _182
REMARK   74  A    between atoms: _181  and  _184
REMARK   75  A    between atoms: _184  and  _185
REMARK   76  A    between atoms: _185  and  _186
REMARK   77  A    between atoms: _191  and  _193
REMARK   78  A    between atoms: _193  and  _194
REMARK   79  A    between atoms: _193  and  _196
REMARK   80  A    between atoms: _196  and  _197
REMARK   81  A    between atoms: _203  and  _205
REMARK   82  A    between atoms: _205  and  _206
REMARK   83  A    between atoms: _205  and  _208
REMARK   84  A    between atoms: _208  and  _209
REMARK   85  A    between atoms: _214  and  _215
REMARK   86  A    between atoms: _217  and  _219
REMARK   87  A    between atoms: _219  and  _220
REMARK   88  A    between atoms: _219  and  _222
REMARK   89  A    between atoms: _222  and  _223
REMARK   90  A    between atoms: _228  and  _229
REMARK   91  A    between atoms: _231  and  _233
REMARK   92  A    between atoms: _233  and  _234
REMARK   93  A    between atoms: _233  and  _236
REMARK   94  A    between atoms: _236  and  _237
REMARK   95  A    between atoms: _242  and  _244
REMARK   96  A    between atoms: _244  and  _245
REMARK   97  A    between atoms: _244  and  _247
REMARK   98  A    between atoms: _247  and  _248
REMARK   99  A    between atoms: _254  and  _256
REMARK  100  A    between atoms: _256  and  _257
REMARK  101  A    between atoms: _259  and  _261
REMARK  102  A    between atoms: _261  and  _262
REMARK  103  A    between atoms: _261  and  _264
REMARK  104  A    between atoms: _267  and  _269
REMARK  105  A    between atoms: _269  and  _270
REMARK  106  A    between atoms: _269  and  _272
REMARK  107  A    between atoms: _272  and  _273
REMARK  108  A    between atoms: _276  and  _278
REMARK  109  A    between atoms: _278  and  _279
REMARK  110  A    between atoms: _278  and  _281
REMARK  111  A    between atoms: _281  and  _282
REMARK  112  A    between atoms: _285  and  _287
REMARK  113  A    between atoms: _287  and  _288
REMARK  114  A    between atoms: _287  and  _290
REMARK  115  A    between atoms: _293  and  _295
REMARK  116  A    between atoms: _295  and  _296
REMARK  117  A    between atoms: _295  and  _298
REMARK  118  A    between atoms: _301  and  _303
REMARK  119  A    between atoms: _303  and  _304
REMARK  120  A    between atoms: _303  and  _306
REMARK  121  A    between atoms: _306  and  _307
REMARK  122  A    between atoms: _310  and  _312
REMARK  123  A    between atoms: _312  and  _313
REMARK  124  A    between atoms: _312  and  _315
REMARK  125  A    between atoms: _315  and  _316
REMARK  126  A    between atoms: _319  and  _321
REMARK  127  A    between atoms: _321  and  _322
REMARK  128  A    between atoms: _321  and  _324
REMARK  129  A    between atoms: _327  and  _329
REMARK  130  A    between atoms: _329  and  _330
REMARK  131  A    between atoms: _329  and  _332
REMARK  132  A    between atoms: _332  and  _333
REMARK  133  A    between atoms: _339  and  _341
REMARK  134  A    between atoms: _341  and  _342
REMARK  135  A    between atoms: _341  and  _344
REMARK  136  A    between atoms: _344  and  _345
REMARK  137  A    between atoms: _351  and  _353
REMARK  138  A    between atoms: _353  and  _354
REMARK  139  A    between atoms: _356  and  _358
REMARK  140  A    between atoms: _358  and  _359
REMARK  141  A    between atoms: _358  and  _361
REMARK  142  A    between atoms: _361  and  _362
REMARK  143  A    between atoms: _362  and  _363
REMARK  144  A    between atoms: _366  and  _368
REMARK  145  A    between atoms: _368  and  _369
REMARK  146  A    between atoms: _368  and  _371
REMARK  147  A    between atoms: _371  and  _372
REMARK  148  A    between atoms: _372  and  _373
REMARK  149  A    between atoms: _373  and  _374
REMARK  150  A    between atoms: _374  and  _375
REMARK  151  A    between atoms: _379  and  _381
REMARK  152  A    between atoms: _381  and  _382
REMARK  153  A    between atoms: _381  and  _384
REMARK  154  A    between atoms: _384  and  _385
REMARK  155  A    between atoms: _388  and  _390
REMARK  156  A    between atoms: _390  and  _391
REMARK  157  A    between atoms: _390  and  _393
REMARK  158  A    between atoms: _393  and  _394
REMARK  159  A    between atoms: _399  and  _400
REMARK  160  A    between atoms: _402  and  _404
REMARK  161  A    between atoms: _404  and  _405
REMARK  162  A    between atoms: _404  and  _407
REMARK  163  A    between atoms: _407  and  _408
REMARK  164  A    between atoms: _408  and  _409
REMARK  165  A    between atoms: _414  and  _416
REMARK  166  A    between atoms: _416  and  _417
REMARK  167  A    between atoms: _416  and  _419
REMARK  168  A    between atoms: _419  and  _420
REMARK  169  A    between atoms: _423  and  _425
REMARK  170  A    between atoms: _425  and  _426
REMARK  171  A    between atoms: _425  and  _428
REMARK  172  A    between atoms: _428  and  _429
REMARK  173  A    between atoms: _432  and  _434
REMARK  174  A    between atoms: _434  and  _435
REMARK  175  A    between atoms: _434  and  _437
REMARK  176  A    between atoms: _440  and  _442
REMARK  177  A    between atoms: _442  and  _443
REMARK  178  A    between atoms: _445  and  _447
REMARK  179  A    between atoms: _447  and  _448
REMARK  180  A    between atoms: _447  and  _450
REMARK  181  A    between atoms: _454  and  _455
REMARK  182  A    between atoms: _460  and  _462
REMARK  183  A    between atoms: _462  and  _463
REMARK  184  A    between atoms: _462  and  _465
REMARK  185  A    between atoms: _465  and  _466
REMARK  186  A    between atoms: _469  and  _471
REMARK  187  A    between atoms: _471  and  _472
REMARK  188  A    between atoms: _471  and  _474
REMARK  189  A    between atoms: _477  and  _479
REMARK  190  A    between atoms: _479  and  _480
REMARK  191  A    between atoms: _479  and  _482
REMARK  192  A    between atoms: _482  and  _483
REMARK  193  A    between atoms: _483  and  _484
REMARK  194  A    between atoms: _484  and  _485
REMARK  195  A    between atoms: _494  and  _496
REMARK  196  A    between atoms: _496  and  _497
REMARK  197  A    between atoms: _496  and  _499
REMARK  198  A    between atoms: _499  and  _500
REMARK  199  A    between atoms: _500  and  _501
REMARK  200  A    between atoms: _504  and  _506
REMARK  201  A    between atoms: _506  and  _507
REMARK  202  A    between atoms: _506  and  _509
REMARK  203  A    between atoms: _509  and  _510
REMARK  204  A    between atoms: _513  and  _515
REMARK  205  A    between atoms: _515  and  _516
REMARK  206  A    between atoms: _519  and  _521
REMARK  207  A    between atoms: _521  and  _522
REMARK  208  A    between atoms: _521  and  _524
REMARK  209  A    between atoms: _524  and  _525
REMARK  210  A    between atoms: _525  and  _526
REMARK  211  A    between atoms: _528  and  _530
REMARK  212  A    between atoms: _530  and  _531
REMARK  213  A    between atoms: _530  and  _533
REMARK  214  A    between atoms: _533  and  _534
REMARK  215  A    between atoms: _536  and  _538
REMARK  216  A    between atoms: _538  and  _539
REMARK  217  A    between atoms: _538  and  _541
REMARK  218  A    between atoms: _541  and  _542
REMARK  219  A    between atoms: _544  and  _546
REMARK  220  A    between atoms: _546  and  _547
REMARK  221  A    between atoms: _546  and  _549
REMARK  222  A    between atoms: _549  and  _550
REMARK  223  A    between atoms: _550  and  _551
REMARK  224  A    between atoms: _551  and  _552
REMARK  225  A    between atoms: _561  and  _563
REMARK  226  A    between atoms: _563  and  _564
REMARK  227  A    between atoms: _563  and  _566
REMARK  228  A    between atoms: _566  and  _567
REMARK  229  A    between atoms: _572  and  _574
REMARK  230  A    between atoms: _574  and  _575
REMARK  231  A    between atoms: _574  and  _577
REMARK  232  A    between atoms: _577  and  _578
REMARK  233  A    between atoms: _581  and  _583
REMARK  234  A    between atoms: _583  and  _584
REMARK  235  A    between atoms: _583  and  _586
REMARK  236  A    between atoms: _586  and  _587
REMARK                            x       y       z     vdW  Elec       q    Type
REMARK                         _______ _______ _______ _____ _____    ______ ____
ROOT
ATOM      1  O   HOH     1      12.709   3.463  -8.662  0.00  0.00    +0.000 OA
ENDROOT
TORSDOF 0
REMARK  Name = ../refined-set-2016/3coy/3coy_pocket.pdb
REMARK  236 active torsions:
REMARK  status: ('A' for Active; 'I' for Inactive)
REMARK    1  A    between atoms: _1  and  _3
REMARK    2  A    between atoms: _3  and  _4
REMARK    3  A    between atoms: _3  and  _6
REMARK    4  A    between atoms: _10  and  _11
REMARK    5  A    between atoms: _16  and  _18
REMARK    6  A    between atoms: _18  and  _19
REMARK    7  A    between atoms: _18  and  _21
REMARK    8  A    between atoms: _21  and  _22
REMARK    9  A    between atoms: _25  and  _27
REMARK   10  A    between atoms: _27  and  _28
REMARK   11  A    between atoms: _27  and  _30
REMARK   12  A    between atoms: _30  and  _31
REMARK   13  A    between atoms: _31  and  _32
REMARK   14  A    between atoms: _34  and  _36
REMARK   15  A    between atoms: _36  and  _37
REMARK   16  A    between atoms: _39  and  _41
REMARK   17  A    between atoms: _41  and  _42
REMARK   18  A    between atoms: _45  and  _47
REMARK   19  A    between atoms: _47  and  _48
REMARK   20  A    between atoms: _47  and  _50
REMARK   21  A    between atoms: _50  and  _51
REMARK   22  A    between atoms: _54  and  _56
REMARK   23  A    between atoms: _56  and  _57
REMARK   24  A    between atoms: _56  and  _59
REMARK   25  A    between atoms: _59  and  _60
REMARK   26  A    between atoms: _65  and  _67
REMARK   27  A    between atoms: _67  and  _68
REMARK   28  A    between atoms: _67  and  _70
REMARK   29  A    between atoms: _70  and  _71
REMARK   30  A    between atoms: _71  and  _72
REMARK   31  A    between atoms: _75  and  _77
REMARK   32  A    between atoms: _77  and  _78
REMARK   33  A    between atoms: _80  and  _82
REMARK   34  A    between atoms: _82  and  _83
REMARK   35  A    between atoms: _82  and  _85
REMARK   36  A    between atoms: _85  and  _86
REMARK   37  A    between atoms: _91  and  _93
REMARK   38  A    between atoms: _93  and  _94
REMARK   39  A    between atoms: _93  and  _96
REMARK   40  A    between atoms: _96  and  _97
REMARK   41  A    between atoms: _100  and  _102
REMARK   42  A    between atoms: _102  and  _103
REMARK   43  A    between atoms: _106  and  _108
REMARK   44  A    between atoms: _108  and  _109
REMARK   45  A    between atoms: _108  and  _111
REMARK   46  A    between atoms: _111  and  _112
REMARK   47  A    between atoms: _115  and  _117
REMARK   48  A    between atoms: _117  and  _118
REMARK   49  A    between atoms: _117  and  _120
REMARK   50  A    between atoms: _123  and  _125
REMARK   51  A    between atoms: _125  and  _126
REMARK   52  A    between atoms: _125  and  _128
REMARK   53  A    between atoms: _131  and  _133
REMARK   54  A    between atoms: _133  and  _134
REMARK   55  A    between atoms: _133  and  _136
REMARK   56  A    between atoms: _136  and  _137
REMARK   57  A    between atoms: _139  and  _141
REMARK   58  A    between atoms: _141  and  _142
REMARK   59  A    between atoms: _141  and  _144
REMARK   60  A    between atoms: _144  and  _145
REMARK   61  A    between atoms: _148  and  _150
REMARK   62  A    between atoms: _150  and  _151
REMARK   63  A    between atoms: _150  and  _153
REMARK   64  A    between atoms: _153  and  _154
REMARK   65  A    between atoms: _160  and  _162
REMARK   66  A    between atoms: _162  and  _163
REMARK   67  A    between atoms: _162  and  _165
REMARK   68  A    between atoms: _168  and  _170
REMARK   69  A    between atoms: _170  and  _171
REMARK   70  A    between atoms: _170  and  _173
REMARK   71  A    between atoms: _173  and  _174
REMARK   72  A    between atoms: _179  and  _181
REMARK   73  A    between atoms: _181  and  _182
REMARK   74  A    between atoms: _181  and  _184
REMARK   75  A    between atoms: _184  and  _185
REMARK   76  A    between atoms: _185  and  _186
REMARK   77  A    between atoms: _191  and  _193
REMARK   78  A    between atoms: _193  and  _194
REMARK   79  A    between atoms: _193  and  _196
REMARK   80  A    between atoms: _196  and  _197
REMARK   81  A    between atoms: _203  and  _205
REMARK   82  A    between atoms: _205  and  _206
REMARK   83  A    between atoms: _205  and  _208
REMARK   84  A    between atoms: _208  and  _209
REMARK   85  A    between atoms: _214  and  _215
REMARK   86  A    between atoms: _217  and  _219
REMARK   87  A    between atoms: _219  and  _220
REMARK   88  A    between atoms: _219  and  _222
REMARK   89  A    between atoms: _222  and  _223
REMARK   90  A    between atoms: _228  and  _229
REMARK   91  A    between atoms: _231  and  _233
REMARK   92  A    between atoms: _233  and  _234
REMARK   93  A    between atoms: _233  and  _236
REMARK   94  A    between atoms: _236  and  _237
REMARK   95  A    between atoms: _242  and  _244
REMARK   96  A    between atoms: _244  and  _245
REMARK   97  A    between atoms: _244  and  _247
REMARK   98  A    between atoms: _247  and  _248
REMARK   99  A    between atoms: _254  and  _256
REMARK  100  A    between atoms: _256  and  _257
REMARK  101  A    between atoms: _259  and  _261
REMARK  102  A    between atoms: _261  and  _262
REMARK  103  A    between atoms: _261  and  _264
REMARK  104  A    between atoms: _267  and  _269
REMARK  105  A    between atoms: _269  and  _270
REMARK  106  A    between atoms: _269  and  _272
REMARK  107  A    between atoms: _272  and  _273
REMARK  108  A    between atoms: _276  and  _278
REMARK  109  A    between atoms: _278  and  _279
REMARK  110  A    between atoms: _278  and  _281
REMARK  111  A    between atoms: _281  and  _282
REMARK  112  A    between atoms: _285  and  _287
REMARK  113  A    between atoms: _287  and  _288
REMARK  114  A    between atoms: _287  and  _290
REMARK  115  A    between atoms: _293  and  _295
REMARK  116  A    between atoms: _295  and  _296
REMARK  117  A    between atoms: _295  and  _298
REMARK  118  A    between atoms: _301  and  _303
REMARK  119  A    between atoms: _303  and  _304
REMARK  120  A    between atoms: _303  and  _306
REMARK  121  A    between atoms: _306  and  _307
REMARK  122  A    between atoms: _310  and  _312
REMARK  123  A    between atoms: _312  and  _313
REMARK  124  A    between atoms: _312  and  _315
REMARK  125  A    between atoms: _315  and  _316
REMARK  126  A    between atoms: _319  and  _321
REMARK  127  A    between atoms: _321  and  _322
REMARK  128  A    between atoms: _321  and  _324
REMARK  129  A    between atoms: _327  and  _329
REMARK  130  A    between atoms: _329  and  _330
REMARK  131  A    between atoms: _329  and  _332
REMARK  132  A    between atoms: _332  and  _333
REMARK  133  A    between atoms: _339  and  _341
REMARK  134  A    between atoms: _341  and  _342
REMARK  135  A    between atoms: _341  and  _344
REMARK  136  A    between atoms: _344  and  _345
REMARK  137  A    between atoms: _351  and  _353
REMARK  138  A    between atoms: _353  and  _354
REMARK  139  A    between atoms: _356  and  _358
REMARK  140  A    between atoms: _358  and  _359
REMARK  141  A    between atoms: _358  and  _361
REMARK  142  A    between atoms: _361  and  _362
REMARK  143  A    between atoms: _362  and  _363
REMARK  144  A    between atoms: _366  and  _368
REMARK  145  A    between atoms: _368  and  _369
REMARK  146  A    between atoms: _368  and  _371
REMARK  147  A    between atoms: _371  and  _372
REMARK  148  A    between atoms: _372  and  _373
REMARK  149  A    between atoms: _373  and  _374
REMARK  150  A    between atoms: _374  and  _375
REMARK  151  A    between atoms: _379  and  _381
REMARK  152  A    between atoms: _381  and  _382
REMARK  153  A    between atoms: _381  and  _384
REMARK  154  A    between atoms: _384  and  _385
REMARK  155  A    between atoms: _388  and  _390
REMARK  156  A    between atoms: _390  and  _391
REMARK  157  A    between atoms: _390  and  _393
REMARK  158  A    between atoms: _393  and  _394
REMARK  159  A    between atoms: _399  and  _400
REMARK  160  A    between atoms: _402  and  _404
REMARK  161  A    between atoms: _404  and  _405
REMARK  162  A    between atoms: _404  and  _407
REMARK  163  A    between atoms: _407  and  _408
REMARK  164  A    between atoms: _408  and  _409
REMARK  165  A    between atoms: _414  and  _416
REMARK  166  A    between atoms: _416  and  _417
REMARK  167  A    between atoms: _416  and  _419
REMARK  168  A    between atoms: _419  and  _420
REMARK  169  A    between atoms: _423  and  _425
REMARK  170  A    between atoms: _425  and  _426
REMARK  171  A    between atoms: _425  and  _428
REMARK  172  A    between atoms: _428  and  _429
REMARK  173  A    between atoms: _432  and  _434
REMARK  174  A    between atoms: _434  and  _435
REMARK  175  A    between atoms: _434  and  _437
REMARK  176  A    between atoms: _440  and  _442
REMARK  177  A    between atoms: _442  and  _443
REMARK  178  A    between atoms: _445  and  _447
REMARK  179  A    between atoms: _447  and  _448
REMARK  180  A    between atoms: _447  and  _450
REMARK  181  A    between atoms: _454  and  _455
REMARK  182  A    between atoms: _460  and  _462
REMARK  183  A    between atoms: _462  and  _463
REMARK  184  A    between atoms: _462  and  _465
REMARK  185  A    between atoms: _465  and  _466
REMARK  186  A    between atoms: _469  and  _471
REMARK  187  A    between atoms: _471  and  _472
REMARK  188  A    between atoms: _471  and  _474
REMARK  189  A    between atoms: _477  and  _479
REMARK  190  A    between atoms: _479  and  _480
REMARK  191  A    between atoms: _479  and  _482
REMARK  192  A    between atoms: _482  and  _483
REMARK  193  A    between atoms: _483  and  _484
REMARK  194  A    between atoms: _484  and  _485
REMARK  195  A    between atoms: _494  and  _496
REMARK  196  A    between atoms: _496  and  _497
REMARK  197  A    between atoms: _496  and  _499
REMARK  198  A    between atoms: _499  and  _500
REMARK  199  A    between atoms: _500  and  _501
REMARK  200  A    between atoms: _504  and  _506
REMARK  201  A    between atoms: _506  and  _507
REMARK  202  A    between atoms: _506  and  _509
REMARK  203  A    between atoms: _509  and  _510
REMARK  204  A    between atoms: _513  and  _515
REMARK  205  A    between atoms: _515  and  _516
REMARK  206  A    between atoms: _519  and  _521
REMARK  207  A    between atoms: _521  and  _522
REMARK  208  A    between atoms: _521  and  _524
REMARK  209  A    between atoms: _524  and  _525
REMARK  210  A    between atoms: _525  and  _526
REMARK  211  A    between atoms: _528  and  _530
REMARK  212  A    between atoms: _530  and  _531
REMARK  213  A    between atoms: _530  and  _533
REMARK  214  A    between atoms: _533  and  _534
REMARK  215  A    between atoms: _536  and  _538
REMARK  216  A    between atoms: _538  and  _539
REMARK  217  A    between atoms: _538  and  _541
REMARK  218  A    between atoms: _541  and  _542
REMARK  219  A    between atoms: _544  and  _546
REMARK  220  A    between atoms: _546  and  _547
REMARK  221  A    between atoms: _546  and  _549
REMARK  222  A    between atoms: _549  and  _550
REMARK  223  A    between atoms: _550  and  _551
REMARK  224  A    between atoms: _551  and  _552
REMARK  225  A    between atoms: _561  and  _563
REMARK  226  A    between atoms: _563  and  _564
REMARK  227  A    between atoms: _563  and  _566
REMARK  228  A    between atoms: _566  and  _567
REMARK  229  A    between atoms: _572  and  _574
REMARK  230  A    between atoms: _574  and  _575
REMARK  231  A    between atoms: _574  and  _577
REMARK  232  A    between atoms: _577  and  _578
REMARK  233  A    between atoms: _581  and  _583
REMARK  234  A    between atoms: _583  and  _584
REMARK  235  A    between atoms: _583  and  _586
REMARK  236  A    between atoms: _586  and  _587
REMARK                            x       y       z     vdW  Elec       q    Type
REMARK                         _______ _______ _______ _____ _____    ______ ____
ROOT
ATOM      1  O   HOH     1      13.789   5.614 -11.539  0.00  0.00    +0.000 OA
ENDROOT
TORSDOF 0
REMARK  Name = ../refined-set-2016/3coy/3coy_pocket.pdb
REMARK  236 active torsions:
REMARK  status: ('A' for Active; 'I' for Inactive)
REMARK    1  A    between atoms: _1  and  _3
REMARK    2  A    between atoms: _3  and  _4
REMARK    3  A    between atoms: _3  and  _6
REMARK    4  A    between atoms: _10  and  _11
REMARK    5  A    between atoms: _16  and  _18
REMARK    6  A    between atoms: _18  and  _19
REMARK    7  A    between atoms: _18  and  _21
REMARK    8  A    between atoms: _21  and  _22
REMARK    9  A    between atoms: _25  and  _27
REMARK   10  A    between atoms: _27  and  _28
REMARK   11  A    between atoms: _27  and  _30
REMARK   12  A    between atoms: _30  and  _31
REMARK   13  A    between atoms: _31  and  _32
REMARK   14  A    between atoms: _34  and  _36
REMARK   15  A    between atoms: _36  and  _37
REMARK   16  A    between atoms: _39  and  _41
REMARK   17  A    between atoms: _41  and  _42
REMARK   18  A    between atoms: _45  and  _47
REMARK   19  A    between atoms: _47  and  _48
REMARK   20  A    between atoms: _47  and  _50
REMARK   21  A    between atoms: _50  and  _51
REMARK   22  A    between atoms: _54  and  _56
REMARK   23  A    between atoms: _56  and  _57
REMARK   24  A    between atoms: _56  and  _59
REMARK   25  A    between atoms: _59  and  _60
REMARK   26  A    between atoms: _65  and  _67
REMARK   27  A    between atoms: _67  and  _68
REMARK   28  A    between atoms: _67  and  _70
REMARK   29  A    between atoms: _70  and  _71
REMARK   30  A    between atoms: _71  and  _72
REMARK   31  A    between atoms: _75  and  _77
REMARK   32  A    between atoms: _77  and  _78
REMARK   33  A    between atoms: _80  and  _82
REMARK   34  A    between atoms: _82  and  _83
REMARK   35  A    between atoms: _82  and  _85
REMARK   36  A    between atoms: _85  and  _86
REMARK   37  A    between atoms: _91  and  _93
REMARK   38  A    between atoms: _93  and  _94
REMARK   39  A    between atoms: _93  and  _96
REMARK   40  A    between atoms: _96  and  _97
REMARK   41  A    between atoms: _100  and  _102
REMARK   42  A    between atoms: _102  and  _103
REMARK   43  A    between atoms: _106  and  _108
REMARK   44  A    between atoms: _108  and  _109
REMARK   45  A    between atoms: _108  and  _111
REMARK   46  A    between atoms: _111  and  _112
REMARK   47  A    between atoms: _115  and  _117
REMARK   48  A    between atoms: _117  and  _118
REMARK   49  A    between atoms: _117  and  _120
REMARK   50  A    between atoms: _123  and  _125
REMARK   51  A    between atoms: _125  and  _126
REMARK   52  A    between atoms: _125  and  _128
REMARK   53  A    between atoms: _131  and  _133
REMARK   54  A    between atoms: _133  and  _134
REMARK   55  A    between atoms: _133  and  _136
REMARK   56  A    between atoms: _136  and  _137
REMARK   57  A    between atoms: _139  and  _141
REMARK   58  A    between atoms: _141  and  _142
REMARK   59  A    between atoms: _141  and  _144
REMARK   60  A    between atoms: _144  and  _145
REMARK   61  A    between atoms: _148  and  _150
REMARK   62  A    between atoms: _150  and  _151
REMARK   63  A    between atoms: _150  and  _153
REMARK   64  A    between atoms: _153  and  _154
REMARK   65  A    between atoms: _160  and  _162
REMARK   66  A    between atoms: _162  and  _163
REMARK   67  A    between atoms: _162  and  _165
REMARK   68  A    between atoms: _168  and  _170
REMARK   69  A    between atoms: _170  and  _171
REMARK   70  A    between atoms: _170  and  _173
REMARK   71  A    between atoms: _173  and  _174
REMARK   72  A    between atoms: _179  and  _181
REMARK   73  A    between atoms: _181  and  _182
REMARK   74  A    between atoms: _181  and  _184
REMARK   75  A    between atoms: _184  and  _185
REMARK   76  A    between atoms: _185  and  _186
REMARK   77  A    between atoms: _191  and  _193
REMARK   78  A    between atoms: _193  and  _194
REMARK   79  A    between atoms: _193  and  _196
REMARK   80  A    between atoms: _196  and  _197
REMARK   81  A    between atoms: _203  and  _205
REMARK   82  A    between atoms: _205  and  _206
REMARK   83  A    between atoms: _205  and  _208
REMARK   84  A    between atoms: _208  and  _209
REMARK   85  A    between atoms: _214  and  _215
REMARK   86  A    between atoms: _217  and  _219
REMARK   87  A    between atoms: _219  and  _220
REMARK   88  A    between atoms: _219  and  _222
REMARK   89  A    between atoms: _222  and  _223
REMARK   90  A    between atoms: _228  and  _229
REMARK   91  A    between atoms: _231  and  _233
REMARK   92  A    between atoms: _233  and  _234
REMARK   93  A    between atoms: _233  and  _236
REMARK   94  A    between atoms: _236  and  _237
REMARK   95  A    between atoms: _242  and  _244
REMARK   96  A    between atoms: _244  and  _245
REMARK   97  A    between atoms: _244  and  _247
REMARK   98  A    between atoms: _247  and  _248
REMARK   99  A    between atoms: _254  and  _256
REMARK  100  A    between atoms: _256  and  _257
REMARK  101  A    between atoms: _259  and  _261
REMARK  102  A    between atoms: _261  and  _262
REMARK  103  A    between atoms: _261  and  _264
REMARK  104  A    between atoms: _267  and  _269
REMARK  105  A    between atoms: _269  and  _270
REMARK  106  A    between atoms: _269  and  _272
REMARK  107  A    between atoms: _272  and  _273
REMARK  108  A    between atoms: _276  and  _278
REMARK  109  A    between atoms: _278  and  _279
REMARK  110  A    between atoms: _278  and  _281
REMARK  111  A    between atoms: _281  and  _282
REMARK  112  A    between atoms: _285  and  _287
REMARK  113  A    between atoms: _287  and  _288
REMARK  114  A    between atoms: _287  and  _290
REMARK  115  A    between atoms: _293  and  _295
REMARK  116  A    between atoms: _295  and  _296
REMARK  117  A    between atoms: _295  and  _298
REMARK  118  A    between atoms: _301  and  _303
REMARK  119  A    between atoms: _303  and  _304
REMARK  120  A    between atoms: _303  and  _306
REMARK  121  A    between atoms: _306  and  _307
REMARK  122  A    between atoms: _310  and  _312
REMARK  123  A    between atoms: _312  and  _313
REMARK  124  A    between atoms: _312  and  _315
REMARK  125  A    between atoms: _315  and  _316
REMARK  126  A    between atoms: _319  and  _321
REMARK  127  A    between atoms: _321  and  _322
REMARK  128  A    between atoms: _321  and  _324
REMARK  129  A    between atoms: _327  and  _329
REMARK  130  A    between atoms: _329  and  _330
REMARK  131  A    between atoms: _329  and  _332
REMARK  132  A    between atoms: _332  and  _333
REMARK  133  A    between atoms: _339  and  _341
REMARK  134  A    between atoms: _341  and  _342
REMARK  135  A    between atoms: _341  and  _344
REMARK  136  A    between atoms: _344  and  _345
REMARK  137  A    between atoms: _351  and  _353
REMARK  138  A    between atoms: _353  and  _354
REMARK  139  A    between atoms: _356  and  _358
REMARK  140  A    between atoms: _358  and  _359
REMARK  141  A    between atoms: _358  and  _361
REMARK  142  A    between atoms: _361  and  _362
REMARK  143  A    between atoms: _362  and  _363
REMARK  144  A    between atoms: _366  and  _368
REMARK  145  A    between atoms: _368  and  _369
REMARK  146  A    between atoms: _368  and  _371
REMARK  147  A    between atoms: _371  and  _372
REMARK  148  A    between atoms: _372  and  _373
REMARK  149  A    between atoms: _373  and  _374
REMARK  150  A    between atoms: _374  and  _375
REMARK  151  A    between atoms: _379  and  _381
REMARK  152  A    between atoms: _381  and  _382
REMARK  153  A    between atoms: _381  and  _384
REMARK  154  A    between atoms: _384  and  _385
REMARK  155  A    between atoms: _388  and  _390
REMARK  156  A    between atoms: _390  and  _391
REMARK  157  A    between atoms: _390  and  _393
REMARK  158  A    between atoms: _393  and  _394
REMARK  159  A    between atoms: _399  and  _400
REMARK  160  A    between atoms: _402  and  _404
REMARK  161  A    between atoms: _404  and  _405
REMARK  162  A    between atoms: _404  and  _407
REMARK  163  A    between atoms: _407  and  _408
REMARK  164  A    between atoms: _408  and  _409
REMARK  165  A    between atoms: _414  and  _416
REMARK  166  A    between atoms: _416  and  _417
REMARK  167  A    between atoms: _416  and  _419
REMARK  168  A    between atoms: _419  and  _420
REMARK  169  A    between atoms: _423  and  _425
REMARK  170  A    between atoms: _425  and  _426
REMARK  171  A    between atoms: _425  and  _428
REMARK  172  A    between atoms: _428  and  _429
REMARK  173  A    between atoms: _432  and  _434
REMARK  174  A    between atoms: _434  and  _435
REMARK  175  A    between atoms: _434  and  _437
REMARK  176  A    between atoms: _440  and  _442
REMARK  177  A    between atoms: _442  and  _443
REMARK  178  A    between atoms: _445  and  _447
REMARK  179  A    between atoms: _447  and  _448
REMARK  180  A    between atoms: _447  and  _450
REMARK  181  A    between atoms: _454  and  _455
REMARK  182  A    between atoms: _460  and  _462
REMARK  183  A    between atoms: _462  and  _463
REMARK  184  A    between atoms: _462  and  _465
REMARK  185  A    between atoms: _465  and  _466
REMARK  186  A    between atoms: _469  and  _471
REMARK  187  A    between atoms: _471  and  _472
REMARK  188  A    between atoms: _471  and  _474
REMARK  189  A    between atoms: _477  and  _479
REMARK  190  A    between atoms: _479  and  _480
REMARK  191  A    between atoms: _479  and  _482
REMARK  192  A    between atoms: _482  and  _483
REMARK  193  A    between atoms: _483  and  _484
REMARK  194  A    between atoms: _484  and  _485
REMARK  195  A    between atoms: _494  and  _496
REMARK  196  A    between atoms: _496  and  _497
REMARK  197  A    between atoms: _496  and  _499
REMARK  198  A    between atoms: _499  and  _500
REMARK  199  A    between atoms: _500  and  _501
REMARK  200  A    between atoms: _504  and  _506
REMARK  201  A    between atoms: _506  and  _507
REMARK  202  A    between atoms: _506  and  _509
REMARK  203  A    between atoms: _509  and  _510
REMARK  204  A    between atoms: _513  and  _515
REMARK  205  A    between atoms: _515  and  _516
REMARK  206  A    between atoms: _519  and  _521
REMARK  207  A    between atoms: _521  and  _522
REMARK  208  A    between atoms: _521  and  _524
REMARK  209  A    between atoms: _524  and  _525
REMARK  210  A    between atoms: _525  and  _526
REMARK  211  A    between atoms: _528  and  _530
REMARK  212  A    between atoms: _530  and  _531
REMARK  213  A    between atoms: _530  and  _533
REMARK  214  A    between atoms: _533  and  _534
REMARK  215  A    between atoms: _536  and  _538
REMARK  216  A    between atoms: _538  and  _539
REMARK  217  A    between atoms: _538  and  _541
REMARK  218  A    between atoms: _541  and  _542
REMARK  219  A    between atoms: _544  and  _546
REMARK  220  A    between atoms: _546  and  _547
REMARK  221  A    between atoms: _546  and  _549
REMARK  222  A    between atoms: _549  and  _550
REMARK  223  A    between atoms: _550  and  _551
REMARK  224  A    between atoms: _551  and  _552
REMARK  225  A    between atoms: _561  and  _563
REMARK  226  A    between atoms: _563  and  _564
REMARK  227  A    between atoms: _563  and  _566
REMARK  228  A    between atoms: _566  and  _567
REMARK  229  A    between atoms: _572  and  _574
REMARK  230  A    between atoms: _574  and  _575
REMARK  231  A    between atoms: _574  and  _577
REMARK  232  A    between atoms: _577  and  _578
REMARK  233  A    between atoms: _581  and  _583
REMARK  234  A    between atoms: _583  and  _584
REMARK  235  A    between atoms: _583  and  _586
REMARK  236  A    between atoms: _586  and  _587
REMARK                            x       y       z     vdW  Elec       q    Type
REMARK                         _______ _______ _______ _____ _____    ______ ____
ROOT
ATOM      1  O   HOH     1       9.066   9.134  -8.571  0.00  0.00    +0.000 OA
ENDROOT
TORSDOF 0
REMARK  Name = ../refined-set-2016/3coy/3coy_pocket.pdb
REMARK  236 active torsions:
REMARK  status: ('A' for Active; 'I' for Inactive)
REMARK    1  A    between atoms: _1  and  _3
REMARK    2  A    between atoms: _3  and  _4
REMARK    3  A    between atoms: _3  and  _6
REMARK    4  A    between atoms: _10  and  _11
REMARK    5  A    between atoms: _16  and  _18
REMARK    6  A    between atoms: _18  and  _19
REMARK    7  A    between atoms: _18  and  _21
REMARK    8  A    between atoms: _21  and  _22
REMARK    9  A    between atoms: _25  and  _27
REMARK   10  A    between atoms: _27  and  _28
REMARK   11  A    between atoms: _27  and  _30
REMARK   12  A    between atoms: _30  and  _31
REMARK   13  A    between atoms: _31  and  _32
REMARK   14  A    between atoms: _34  and  _36
REMARK   15  A    between atoms: _36  and  _37
REMARK   16  A    between atoms: _39  and  _41
REMARK   17  A    between atoms: _41  and  _42
REMARK   18  A    between atoms: _45  and  _47
REMARK   19  A    between atoms: _47  and  _48
REMARK   20  A    between atoms: _47  and  _50
REMARK   21  A    between atoms: _50  and  _51
REMARK   22  A    between atoms: _54  and  _56
REMARK   23  A    between atoms: _56  and  _57
REMARK   24  A    between atoms: _56  and  _59
REMARK   25  A    between atoms: _59  and  _60
REMARK   26  A    between atoms: _65  and  _67
REMARK   27  A    between atoms: _67  and  _68
REMARK   28  A    between atoms: _67  and  _70
REMARK   29  A    between atoms: _70  and  _71
REMARK   30  A    between atoms: _71  and  _72
REMARK   31  A    between atoms: _75  and  _77
REMARK   32  A    between atoms: _77  and  _78
REMARK   33  A    between atoms: _80  and  _82
REMARK   34  A    between atoms: _82  and  _83
REMARK   35  A    between atoms: _82  and  _85
REMARK   36  A    between atoms: _85  and  _86
REMARK   37  A    between atoms: _91  and  _93
REMARK   38  A    between atoms: _93  and  _94
REMARK   39  A    between atoms: _93  and  _96
REMARK   40  A    between atoms: _96  and  _97
REMARK   41  A    between atoms: _100  and  _102
REMARK   42  A    between atoms: _102  and  _103
REMARK   43  A    between atoms: _106  and  _108
REMARK   44  A    between atoms: _108  and  _109
REMARK   45  A    between atoms: _108  and  _111
REMARK   46  A    between atoms: _111  and  _112
REMARK   47  A    between atoms: _115  and  _117
REMARK   48  A    between atoms: _117  and  _118
REMARK   49  A    between atoms: _117  and  _120
REMARK   50  A    between atoms: _123  and  _125
REMARK   51  A    between atoms: _125  and  _126
REMARK   52  A    between atoms: _125  and  _128
REMARK   53  A    between atoms: _131  and  _133
REMARK   54  A    between atoms: _133  and  _134
REMARK   55  A    between atoms: _133  and  _136
REMARK   56  A    between atoms: _136  and  _137
REMARK   57  A    between atoms: _139  and  _141
REMARK   58  A    between atoms: _141  and  _142
REMARK   59  A    between atoms: _141  and  _144
REMARK   60  A    between atoms: _144  and  _145
REMARK   61  A    between atoms: _148  and  _150
REMARK   62  A    between atoms: _150  and  _151
REMARK   63  A    between atoms: _150  and  _153
REMARK   64  A    between atoms: _153  and  _154
REMARK   65  A    between atoms: _160  and  _162
REMARK   66  A    between atoms: _162  and  _163
REMARK   67  A    between atoms: _162  and  _165
REMARK   68  A    between atoms: _168  and  _170
REMARK   69  A    between atoms: _170  and  _171
REMARK   70  A    between atoms: _170  and  _173
REMARK   71  A    between atoms: _173  and  _174
REMARK   72  A    between atoms: _179  and  _181
REMARK   73  A    between atoms: _181  and  _182
REMARK   74  A    between atoms: _181  and  _184
REMARK   75  A    between atoms: _184  and  _185
REMARK   76  A    between atoms: _185  and  _186
REMARK   77  A    between atoms: _191  and  _193
REMARK   78  A    between atoms: _193  and  _194
REMARK   79  A    between atoms: _193  and  _196
REMARK   80  A    between atoms: _196  and  _197
REMARK   81  A    between atoms: _203  and  _205
REMARK   82  A    between atoms: _205  and  _206
REMARK   83  A    between atoms: _205  and  _208
REMARK   84  A    between atoms: _208  and  _209
REMARK   85  A    between atoms: _214  and  _215
REMARK   86  A    between atoms: _217  and  _219
REMARK   87  A    between atoms: _219  and  _220
REMARK   88  A    between atoms: _219  and  _222
REMARK   89  A    between atoms: _222  and  _223
REMARK   90  A    between atoms: _228  and  _229
REMARK   91  A    between atoms: _231  and  _233
REMARK   92  A    between atoms: _233  and  _234
REMARK   93  A    between atoms: _233  and  _236
REMARK   94  A    between atoms: _236  and  _237
REMARK   95  A    between atoms: _242  and  _244
REMARK   96  A    between atoms: _244  and  _245
REMARK   97  A    between atoms: _244  and  _247
REMARK   98  A    between atoms: _247  and  _248
REMARK   99  A    between atoms: _254  and  _256
REMARK  100  A    between atoms: _256  and  _257
REMARK  101  A    between atoms: _259  and  _261
REMARK  102  A    between atoms: _261  and  _262
REMARK  103  A    between atoms: _261  and  _264
REMARK  104  A    between atoms: _267  and  _269
REMARK  105  A    between atoms: _269  and  _270
REMARK  106  A    between atoms: _269  and  _272
REMARK  107  A    between atoms: _272  and  _273
REMARK  108  A    between atoms: _276  and  _278
REMARK  109  A    between atoms: _278  and  _279
REMARK  110  A    between atoms: _278  and  _281
REMARK  111  A    between atoms: _281  and  _282
REMARK  112  A    between atoms: _285  and  _287
REMARK  113  A    between atoms: _287  and  _288
REMARK  114  A    between atoms: _287  and  _290
REMARK  115  A    between atoms: _293  and  _295
REMARK  116  A    between atoms: _295  and  _296
REMARK  117  A    between atoms: _295  and  _298
REMARK  118  A    between atoms: _301  and  _303
REMARK  119  A    between atoms: _303  and  _304
REMARK  120  A    between atoms: _303  and  _306
REMARK  121  A    between atoms: _306  and  _307
REMARK  122  A    between atoms: _310  and  _312
REMARK  123  A    between atoms: _312  and  _313
REMARK  124  A    between atoms: _312  and  _315
REMARK  125  A    between atoms: _315  and  _316
REMARK  126  A    between atoms: _319  and  _321
REMARK  127  A    between atoms: _321  and  _322
REMARK  128  A    between atoms: _321  and  _324
REMARK  129  A    between atoms: _327  and  _329
REMARK  130  A    between atoms: _329  and  _330
REMARK  131  A    between atoms: _329  and  _332
REMARK  132  A    between atoms: _332  and  _333
REMARK  133  A    between atoms: _339  and  _341
REMARK  134  A    between atoms: _341  and  _342
REMARK  135  A    between atoms: _341  and  _344
REMARK  136  A    between atoms: _344  and  _345
REMARK  137  A    between atoms: _351  and  _353
REMARK  138  A    between atoms: _353  and  _354
REMARK  139  A    between atoms: _356  and  _358
REMARK  140  A    between atoms: _358  and  _359
REMARK  141  A    between atoms: _358  and  _361
REMARK  142  A    between atoms: _361  and  _362
REMARK  143  A    between atoms: _362  and  _363
REMARK  144  A    between atoms: _366  and  _368
REMARK  145  A    between atoms: _368  and  _369
REMARK  146  A    between atoms: _368  and  _371
REMARK  147  A    between atoms: _371  and  _372
REMARK  148  A    between atoms: _372  and  _373
REMARK  149  A    between atoms: _373  and  _374
REMARK  150  A    between atoms: _374  and  _375
REMARK  151  A    between atoms: _379  and  _381
REMARK  152  A    between atoms: _381  and  _382
REMARK  153  A    between atoms: _381  and  _384
REMARK  154  A    between atoms: _384  and  _385
REMARK  155  A    between atoms: _388  and  _390
REMARK  156  A    between atoms: _390  and  _391
REMARK  157  A    between atoms: _390  and  _393
REMARK  158  A    between atoms: _393  and  _394
REMARK  159  A    between atoms: _399  and  _400
REMARK  160  A    between atoms: _402  and  _404
REMARK  161  A    between atoms: _404  and  _405
REMARK  162  A    between atoms: _404  and  _407
REMARK  163  A    between atoms: _407  and  _408
REMARK  164  A    between atoms: _408  and  _409
REMARK  165  A    between atoms: _414  and  _416
REMARK  166  A    between atoms: _416  and  _417
REMARK  167  A    between atoms: _416  and  _419
REMARK  168  A    between atoms: _419  and  _420
REMARK  169  A    between atoms: _423  and  _425
REMARK  170  A    between atoms: _425  and  _426
REMARK  171  A    between atoms: _425  and  _428
REMARK  172  A    between atoms: _428  and  _429
REMARK  173  A    between atoms: _432  and  _434
REMARK  174  A    between atoms: _434  and  _435
REMARK  175  A    between atoms: _434  and  _437
REMARK  176  A    between atoms: _440  and  _442
REMARK  177  A    between atoms: _442  and  _443
REMARK  178  A    between atoms: _445  and  _447
REMARK  179  A    between atoms: _447  and  _448
REMARK  180  A    between atoms: _447  and  _450
REMARK  181  A    between atoms: _454  and  _455
REMARK  182  A    between atoms: _460  and  _462
REMARK  183  A    between atoms: _462  and  _463
REMARK  184  A    between atoms: _462  and  _465
REMARK  185  A    between atoms: _465  and  _466
REMARK  186  A    between atoms: _469  and  _471
REMARK  187  A    between atoms: _471  and  _472
REMARK  188  A    between atoms: _471  and  _474
REMARK  189  A    between atoms: _477  and  _479
REMARK  190  A    between atoms: _479  and  _480
REMARK  191  A    between atoms: _479  and  _482
REMARK  192  A    between atoms: _482  and  _483
REMARK  193  A    between atoms: _483  and  _484
REMARK  194  A    between atoms: _484  and  _485
REMARK  195  A    between atoms: _494  and  _496
REMARK  196  A    between atoms: _496  and  _497
REMARK  197  A    between atoms: _496  and  _499
REMARK  198  A    between atoms: _499  and  _500
REMARK  199  A    between atoms: _500  and  _501
REMARK  200  A    between atoms: _504  and  _506
REMARK  201  A    between atoms: _506  and  _507
REMARK  202  A    between atoms: _506  and  _509
REMARK  203  A    between atoms: _509  and  _510
REMARK  204  A    between atoms: _513  and  _515
REMARK  205  A    between atoms: _515  and  _516
REMARK  206  A    between atoms: _519  and  _521
REMARK  207  A    between atoms: _521  and  _522
REMARK  208  A    between atoms: _521  and  _524
REMARK  209  A    between atoms: _524  and  _525
REMARK  210  A    between atoms: _525  and  _526
REMARK  211  A    between atoms: _528  and  _530
REMARK  212  A    between atoms: _530  and  _531
REMARK  213  A    between atoms: _530  and  _533
REMARK  214  A    between atoms: _533  and  _534
REMARK  215  A    between atoms: _536  and  _538
REMARK  216  A    between atoms: _538  and  _539
REMARK  217  A    between atoms: _538  and  _541
REMARK  218  A    between atoms: _541  and  _542
REMARK  219  A    between atoms: _544  and  _546
REMARK  220  A    between atoms: _546  and  _547
REMARK  221  A    between atoms: _546  and  _549
REMARK  222  A    between atoms: _549  and  _550
REMARK  223  A    between atoms: _550  and  _551
REMARK  224  A    between atoms: _551  and  _552
REMARK  225  A    between atoms: _561  and  _563
REMARK  226  A    between atoms: _563  and  _564
REMARK  227  A    between atoms: _563  and  _566
REMARK  228  A    between atoms: _566  and  _567
REMARK  229  A    between atoms: _572  and  _574
REMARK  230  A    between atoms: _574  and  _575
REMARK  231  A    between atoms: _574  and  _577
REMARK  232  A    between atoms: _577  and  _578
REMARK  233  A    between atoms: _581  and  _583
REMARK  234  A    between atoms: _583  and  _584
REMARK  235  A    between atoms: _583  and  _586
REMARK  236  A    between atoms: _586  and  _587
REMARK                            x       y       z     vdW  Elec       q    Type
REMARK                         _______ _______ _______ _____ _____    ______ ____
ROOT
ATOM      1  O   HOH     1      13.993  11.967  10.804  0.00  0.00    +0.000 OA
ENDROOT
TORSDOF 0
REMARK  Name = ../refined-set-2016/3coy/3coy_pocket.pdb
REMARK  236 active torsions:
REMARK  status: ('A' for Active; 'I' for Inactive)
REMARK    1  A    between atoms: _1  and  _3
REMARK    2  A    between atoms: _3  and  _4
REMARK    3  A    between atoms: _3  and  _6
REMARK    4  A    between atoms: _10  and  _11
REMARK    5  A    between atoms: _16  and  _18
REMARK    6  A    between atoms: _18  and  _19
REMARK    7  A    between atoms: _18  and  _21
REMARK    8  A    between atoms: _21  and  _22
REMARK    9  A    between atoms: _25  and  _27
REMARK   10  A    between atoms: _27  and  _28
REMARK   11  A    between atoms: _27  and  _30
REMARK   12  A    between atoms: _30  and  _31
REMARK   13  A    between atoms: _31  and  _32
REMARK   14  A    between atoms: _34  and  _36
REMARK   15  A    between atoms: _36  and  _37
REMARK   16  A    between atoms: _39  and  _41
REMARK   17  A    between atoms: _41  and  _42
REMARK   18  A    between atoms: _45  and  _47
REMARK   19  A    between atoms: _47  and  _48
REMARK   20  A    between atoms: _47  and  _50
REMARK   21  A    between atoms: _50  and  _51
REMARK   22  A    between atoms: _54  and  _56
REMARK   23  A    between atoms: _56  and  _57
REMARK   24  A    between atoms: _56  and  _59
REMARK   25  A    between atoms: _59  and  _60
REMARK   26  A    between atoms: _65  and  _67
REMARK   27  A    between atoms: _67  and  _68
REMARK   28  A    between atoms: _67  and  _70
REMARK   29  A    between atoms: _70  and  _71
REMARK   30  A    between atoms: _71  and  _72
REMARK   31  A    between atoms: _75  and  _77
REMARK   32  A    between atoms: _77  and  _78
REMARK   33  A    between atoms: _80  and  _82
REMARK   34  A    between atoms: _82  and  _83
REMARK   35  A    between atoms: _82  and  _85
REMARK   36  A    between atoms: _85  and  _86
REMARK   37  A    between atoms: _91  and  _93
REMARK   38  A    between atoms: _93  and  _94
REMARK   39  A    between atoms: _93  and  _96
REMARK   40  A    between atoms: _96  and  _97
REMARK   41  A    between atoms: _100  and  _102
REMARK   42  A    between atoms: _102  and  _103
REMARK   43  A    between atoms: _106  and  _108
REMARK   44  A    between atoms: _108  and  _109
REMARK   45  A    between atoms: _108  and  _111
REMARK   46  A    between atoms: _111  and  _112
REMARK   47  A    between atoms: _115  and  _117
REMARK   48  A    between atoms: _117  and  _118
REMARK   49  A    between atoms: _117  and  _120
REMARK   50  A    between atoms: _123  and  _125
REMARK   51  A    between atoms: _125  and  _126
REMARK   52  A    between atoms: _125  and  _128
REMARK   53  A    between atoms: _131  and  _133
REMARK   54  A    between atoms: _133  and  _134
REMARK   55  A    between atoms: _133  and  _136
REMARK   56  A    between atoms: _136  and  _137
REMARK   57  A    between atoms: _139  and  _141
REMARK   58  A    between atoms: _141  and  _142
REMARK   59  A    between atoms: _141  and  _144
REMARK   60  A    between atoms: _144  and  _145
REMARK   61  A    between atoms: _148  and  _150
REMARK   62  A    between atoms: _150  and  _151
REMARK   63  A    between atoms: _150  and  _153
REMARK   64  A    between atoms: _153  and  _154
REMARK   65  A    between atoms: _160  and  _162
REMARK   66  A    between atoms: _162  and  _163
REMARK   67  A    between atoms: _162  and  _165
REMARK   68  A    between atoms: _168  and  _170
REMARK   69  A    between atoms: _170  and  _171
REMARK   70  A    between atoms: _170  and  _173
REMARK   71  A    between atoms: _173  and  _174
REMARK   72  A    between atoms: _179  and  _181
REMARK   73  A    between atoms: _181  and  _182
REMARK   74  A    between atoms: _181  and  _184
REMARK   75  A    between atoms: _184  and  _185
REMARK   76  A    between atoms: _185  and  _186
REMARK   77  A    between atoms: _191  and  _193
REMARK   78  A    between atoms: _193  and  _194
REMARK   79  A    between atoms: _193  and  _196
REMARK   80  A    between atoms: _196  and  _197
REMARK   81  A    between atoms: _203  and  _205
REMARK   82  A    between atoms: _205  and  _206
REMARK   83  A    between atoms: _205  and  _208
REMARK   84  A    between atoms: _208  and  _209
REMARK   85  A    between atoms: _214  and  _215
REMARK   86  A    between atoms: _217  and  _219
REMARK   87  A    between atoms: _219  and  _220
REMARK   88  A    between atoms: _219  and  _222
REMARK   89  A    between atoms: _222  and  _223
REMARK   90  A    between atoms: _228  and  _229
REMARK   91  A    between atoms: _231  and  _233
REMARK   92  A    between atoms: _233  and  _234
REMARK   93  A    between atoms: _233  and  _236
REMARK   94  A    between atoms: _236  and  _237
REMARK   95  A    between atoms: _242  and  _244
REMARK   96  A    between atoms: _244  and  _245
REMARK   97  A    between atoms: _244  and  _247
REMARK   98  A    between atoms: _247  and  _248
REMARK   99  A    between atoms: _254  and  _256
REMARK  100  A    between atoms: _256  and  _257
REMARK  101  A    between atoms: _259  and  _261
REMARK  102  A    between atoms: _261  and  _262
REMARK  103  A    between atoms: _261  and  _264
REMARK  104  A    between atoms: _267  and  _269
REMARK  105  A    between atoms: _269  and  _270
REMARK  106  A    between atoms: _269  and  _272
REMARK  107  A    between atoms: _272  and  _273
REMARK  108  A    between atoms: _276  and  _278
REMARK  109  A    between atoms: _278  and  _279
REMARK  110  A    between atoms: _278  and  _281
REMARK  111  A    between atoms: _281  and  _282
REMARK  112  A    between atoms: _285  and  _287
REMARK  113  A    between atoms: _287  and  _288
REMARK  114  A    between atoms: _287  and  _290
REMARK  115  A    between atoms: _293  and  _295
REMARK  116  A    between atoms: _295  and  _296
REMARK  117  A    between atoms: _295  and  _298
REMARK  118  A    between atoms: _301  and  _303
REMARK  119  A    between atoms: _303  and  _304
REMARK  120  A    between atoms: _303  and  _306
REMARK  121  A    between atoms: _306  and  _307
REMARK  122  A    between atoms: _310  and  _312
REMARK  123  A    between atoms: _312  and  _313
REMARK  124  A    between atoms: _312  and  _315
REMARK  125  A    between atoms: _315  and  _316
REMARK  126  A    between atoms: _319  and  _321
REMARK  127  A    between atoms: _321  and  _322
REMARK  128  A    between atoms: _321  and  _324
REMARK  129  A    between atoms: _327  and  _329
REMARK  130  A    between atoms: _329  and  _330
REMARK  131  A    between atoms: _329  and  _332
REMARK  132  A    between atoms: _332  and  _333
REMARK  133  A    between atoms: _339  and  _341
REMARK  134  A    between atoms: _341  and  _342
REMARK  135  A    between atoms: _341  and  _344
REMARK  136  A    between atoms: _344  and  _345
REMARK  137  A    between atoms: _351  and  _353
REMARK  138  A    between atoms: _353  and  _354
REMARK  139  A    between atoms: _356  and  _358
REMARK  140  A    between atoms: _358  and  _359
REMARK  141  A    between atoms: _358  and  _361
REMARK  142  A    between atoms: _361  and  _362
REMARK  143  A    between atoms: _362  and  _363
REMARK  144  A    between atoms: _366  and  _368
REMARK  145  A    between atoms: _368  and  _369
REMARK  146  A    between atoms: _368  and  _371
REMARK  147  A    between atoms: _371  and  _372
REMARK  148  A    between atoms: _372  and  _373
REMARK  149  A    between atoms: _373  and  _374
REMARK  150  A    between atoms: _374  and  _375
REMARK  151  A    between atoms: _379  and  _381
REMARK  152  A    between atoms: _381  and  _382
REMARK  153  A    between atoms: _381  and  _384
REMARK  154  A    between atoms: _384  and  _385
REMARK  155  A    between atoms: _388  and  _390
REMARK  156  A    between atoms: _390  and  _391
REMARK  157  A    between atoms: _390  and  _393
REMARK  158  A    between atoms: _393  and  _394
REMARK  159  A    between atoms: _399  and  _400
REMARK  160  A    between atoms: _402  and  _404
REMARK  161  A    between atoms: _404  and  _405
REMARK  162  A    between atoms: _404  and  _407
REMARK  163  A    between atoms: _407  and  _408
REMARK  164  A    between atoms: _408  and  _409
REMARK  165  A    between atoms: _414  and  _416
REMARK  166  A    between atoms: _416  and  _417
REMARK  167  A    between atoms: _416  and  _419
REMARK  168  A    between atoms: _419  and  _420
REMARK  169  A    between atoms: _423  and  _425
REMARK  170  A    between atoms: _425  and  _426
REMARK  171  A    between atoms: _425  and  _428
REMARK  172  A    between atoms: _428  and  _429
REMARK  173  A    between atoms: _432  and  _434
REMARK  174  A    between atoms: _434  and  _435
REMARK  175  A    between atoms: _434  and  _437
REMARK  176  A    between atoms: _440  and  _442
REMARK  177  A    between atoms: _442  and  _443
REMARK  178  A    between atoms: _445  and  _447
REMARK  179  A    between atoms: _447  and  _448
REMARK  180  A    between atoms: _447  and  _450
REMARK  181  A    between atoms: _454  and  _455
REMARK  182  A    between atoms: _460  and  _462
REMARK  183  A    between atoms: _462  and  _463
REMARK  184  A    between atoms: _462  and  _465
REMARK  185  A    between atoms: _465  and  _466
REMARK  186  A    between atoms: _469  and  _471
REMARK  187  A    between atoms: _471  and  _472
REMARK  188  A    between atoms: _471  and  _474
REMARK  189  A    between atoms: _477  and  _479
REMARK  190  A    between atoms: _479  and  _480
REMARK  191  A    between atoms: _479  and  _482
REMARK  192  A    between atoms: _482  and  _483
REMARK  193  A    between atoms: _483  and  _484
REMARK  194  A    between atoms: _484  and  _485
REMARK  195  A    between atoms: _494  and  _496
REMARK  196  A    between atoms: _496  and  _497
REMARK  197  A    between atoms: _496  and  _499
REMARK  198  A    between atoms: _499  and  _500
REMARK  199  A    between atoms: _500  and  _501
REMARK  200  A    between atoms: _504  and  _506
REMARK  201  A    between atoms: _506  and  _507
REMARK  202  A    between atoms: _506  and  _509
REMARK  203  A    between atoms: _509  and  _510
REMARK  204  A    between atoms: _513  and  _515
REMARK  205  A    between atoms: _515  and  _516
REMARK  206  A    between atoms: _519  and  _521
REMARK  207  A    between atoms: _521  and  _522
REMARK  208  A    between atoms: _521  and  _524
REMARK  209  A    between atoms: _524  and  _525
REMARK  210  A    between atoms: _525  and  _526
REMARK  211  A    between atoms: _528  and  _530
REMARK  212  A    between atoms: _530  and  _531
REMARK  213  A    between atoms: _530  and  _533
REMARK  214  A    between atoms: _533  and  _534
REMARK  215  A    between atoms: _536  and  _538
REMARK  216  A    between atoms: _538  and  _539
REMARK  217  A    between atoms: _538  and  _541
REMARK  218  A    between atoms: _541  and  _542
REMARK  219  A    between atoms: _544  and  _546
REMARK  220  A    between atoms: _546  and  _547
REMARK  221  A    between atoms: _546  and  _549
REMARK  222  A    between atoms: _549  and  _550
REMARK  223  A    between atoms: _550  and  _551
REMARK  224  A    between atoms: _551  and  _552
REMARK  225  A    between atoms: _561  and  _563
REMARK  226  A    between atoms: _563  and  _564
REMARK  227  A    between atoms: _563  and  _566
REMARK  228  A    between atoms: _566  and  _567
REMARK  229  A    between atoms: _572  and  _574
REMARK  230  A    between atoms: _574  and  _575
REMARK  231  A    between atoms: _574  and  _577
REMARK  232  A    between atoms: _577  and  _578
REMARK  233  A    between atoms: _581  and  _583
REMARK  234  A    between atoms: _583  and  _584
REMARK  235  A    between atoms: _583  and  _586
REMARK  236  A    between atoms: _586  and  _587
REMARK                            x       y       z     vdW  Elec       q    Type
REMARK                         _______ _______ _______ _____ _____    ______ ____
ROOT
ATOM      1  O   HOH     1      24.125   5.344   5.624  0.00  0.00    +0.000 OA
ENDROOT
TORSDOF 0
REMARK  Name = ../refined-set-2016/3coy/3coy_pocket.pdb
REMARK  236 active torsions:
REMARK  status: ('A' for Active; 'I' for Inactive)
REMARK    1  A    between atoms: _1  and  _3
REMARK    2  A    between atoms: _3  and  _4
REMARK    3  A    between atoms: _3  and  _6
REMARK    4  A    between atoms: _10  and  _11
REMARK    5  A    between atoms: _16  and  _18
REMARK    6  A    between atoms: _18  and  _19
REMARK    7  A    between atoms: _18  and  _21
REMARK    8  A    between atoms: _21  and  _22
REMARK    9  A    between atoms: _25  and  _27
REMARK   10  A    between atoms: _27  and  _28
REMARK   11  A    between atoms: _27  and  _30
REMARK   12  A    between atoms: _30  and  _31
REMARK   13  A    between atoms: _31  and  _32
REMARK   14  A    between atoms: _34  and  _36
REMARK   15  A    between atoms: _36  and  _37
REMARK   16  A    between atoms: _39  and  _41
REMARK   17  A    between atoms: _41  and  _42
REMARK   18  A    between atoms: _45  and  _47
REMARK   19  A    between atoms: _47  and  _48
REMARK   20  A    between atoms: _47  and  _50
REMARK   21  A    between atoms: _50  and  _51
REMARK   22  A    between atoms: _54  and  _56
REMARK   23  A    between atoms: _56  and  _57
REMARK   24  A    between atoms: _56  and  _59
REMARK   25  A    between atoms: _59  and  _60
REMARK   26  A    between atoms: _65  and  _67
REMARK   27  A    between atoms: _67  and  _68
REMARK   28  A    between atoms: _67  and  _70
REMARK   29  A    between atoms: _70  and  _71
REMARK   30  A    between atoms: _71  and  _72
REMARK   31  A    between atoms: _75  and  _77
REMARK   32  A    between atoms: _77  and  _78
REMARK   33  A    between atoms: _80  and  _82
REMARK   34  A    between atoms: _82  and  _83
REMARK   35  A    between atoms: _82  and  _85
REMARK   36  A    between atoms: _85  and  _86
REMARK   37  A    between atoms: _91  and  _93
REMARK   38  A    between atoms: _93  and  _94
REMARK   39  A    between atoms: _93  and  _96
REMARK   40  A    between atoms: _96  and  _97
REMARK   41  A    between atoms: _100  and  _102
REMARK   42  A    between atoms: _102  and  _103
REMARK   43  A    between atoms: _106  and  _108
REMARK   44  A    between atoms: _108  and  _109
REMARK   45  A    between atoms: _108  and  _111
REMARK   46  A    between atoms: _111  and  _112
REMARK   47  A    between atoms: _115  and  _117
REMARK   48  A    between atoms: _117  and  _118
REMARK   49  A    between atoms: _117  and  _120
REMARK   50  A    between atoms: _123  and  _125
REMARK   51  A    between atoms: _125  and  _126
REMARK   52  A    between atoms: _125  and  _128
REMARK   53  A    between atoms: _131  and  _133
REMARK   54  A    between atoms: _133  and  _134
REMARK   55  A    between atoms: _133  and  _136
REMARK   56  A    between atoms: _136  and  _137
REMARK   57  A    between atoms: _139  and  _141
REMARK   58  A    between atoms: _141  and  _142
REMARK   59  A    between atoms: _141  and  _144
REMARK   60  A    between atoms: _144  and  _145
REMARK   61  A    between atoms: _148  and  _150
REMARK   62  A    between atoms: _150  and  _151
REMARK   63  A    between atoms: _150  and  _153
REMARK   64  A    between atoms: _153  and  _154
REMARK   65  A    between atoms: _160  and  _162
REMARK   66  A    between atoms: _162  and  _163
REMARK   67  A    between atoms: _162  and  _165
REMARK   68  A    between atoms: _168  and  _170
REMARK   69  A    between atoms: _170  and  _171
REMARK   70  A    between atoms: _170  and  _173
REMARK   71  A    between atoms: _173  and  _174
REMARK   72  A    between atoms: _179  and  _181
REMARK   73  A    between atoms: _181  and  _182
REMARK   74  A    between atoms: _181  and  _184
REMARK   75  A    between atoms: _184  and  _185
REMARK   76  A    between atoms: _185  and  _186
REMARK   77  A    between atoms: _191  and  _193
REMARK   78  A    between atoms: _193  and  _194
REMARK   79  A    between atoms: _193  and  _196
REMARK   80  A    between atoms: _196  and  _197
REMARK   81  A    between atoms: _203  and  _205
REMARK   82  A    between atoms: _205  and  _206
REMARK   83  A    between atoms: _205  and  _208
REMARK   84  A    between atoms: _208  and  _209
REMARK   85  A    between atoms: _214  and  _215
REMARK   86  A    between atoms: _217  and  _219
REMARK   87  A    between atoms: _219  and  _220
REMARK   88  A    between atoms: _219  and  _222
REMARK   89  A    between atoms: _222  and  _223
REMARK   90  A    between atoms: _228  and  _229
REMARK   91  A    between atoms: _231  and  _233
REMARK   92  A    between atoms: _233  and  _234
REMARK   93  A    between atoms: _233  and  _236
REMARK   94  A    between atoms: _236  and  _237
REMARK   95  A    between atoms: _242  and  _244
REMARK   96  A    between atoms: _244  and  _245
REMARK   97  A    between atoms: _244  and  _247
REMARK   98  A    between atoms: _247  and  _248
REMARK   99  A    between atoms: _254  and  _256
REMARK  100  A    between atoms: _256  and  _257
REMARK  101  A    between atoms: _259  and  _261
REMARK  102  A    between atoms: _261  and  _262
REMARK  103  A    between atoms: _261  and  _264
REMARK  104  A    between atoms: _267  and  _269
REMARK  105  A    between atoms: _269  and  _270
REMARK  106  A    between atoms: _269  and  _272
REMARK  107  A    between atoms: _272  and  _273
REMARK  108  A    between atoms: _276  and  _278
REMARK  109  A    between atoms: _278  and  _279
REMARK  110  A    between atoms: _278  and  _281
REMARK  111  A    between atoms: _281  and  _282
REMARK  112  A    between atoms: _285  and  _287
REMARK  113  A    between atoms: _287  and  _288
REMARK  114  A    between atoms: _287  and  _290
REMARK  115  A    between atoms: _293  and  _295
REMARK  116  A    between atoms: _295  and  _296
REMARK  117  A    between atoms: _295  and  _298
REMARK  118  A    between atoms: _301  and  _303
REMARK  119  A    between atoms: _303  and  _304
REMARK  120  A    between atoms: _303  and  _306
REMARK  121  A    between atoms: _306  and  _307
REMARK  122  A    between atoms: _310  and  _312
REMARK  123  A    between atoms: _312  and  _313
REMARK  124  A    between atoms: _312  and  _315
REMARK  125  A    between atoms: _315  and  _316
REMARK  126  A    between atoms: _319  and  _321
REMARK  127  A    between atoms: _321  and  _322
REMARK  128  A    between atoms: _321  and  _324
REMARK  129  A    between atoms: _327  and  _329
REMARK  130  A    between atoms: _329  and  _330
REMARK  131  A    between atoms: _329  and  _332
REMARK  132  A    between atoms: _332  and  _333
REMARK  133  A    between atoms: _339  and  _341
REMARK  134  A    between atoms: _341  and  _342
REMARK  135  A    between atoms: _341  and  _344
REMARK  136  A    between atoms: _344  and  _345
REMARK  137  A    between atoms: _351  and  _353
REMARK  138  A    between atoms: _353  and  _354
REMARK  139  A    between atoms: _356  and  _358
REMARK  140  A    between atoms: _358  and  _359
REMARK  141  A    between atoms: _358  and  _361
REMARK  142  A    between atoms: _361  and  _362
REMARK  143  A    between atoms: _362  and  _363
REMARK  144  A    between atoms: _366  and  _368
REMARK  145  A    between atoms: _368  and  _369
REMARK  146  A    between atoms: _368  and  _371
REMARK  147  A    between atoms: _371  and  _372
REMARK  148  A    between atoms: _372  and  _373
REMARK  149  A    between atoms: _373  and  _374
REMARK  150  A    between atoms: _374  and  _375
REMARK  151  A    between atoms: _379  and  _381
REMARK  152  A    between atoms: _381  and  _382
REMARK  153  A    between atoms: _381  and  _384
REMARK  154  A    between atoms: _384  and  _385
REMARK  155  A    between atoms: _388  and  _390
REMARK  156  A    between atoms: _390  and  _391
REMARK  157  A    between atoms: _390  and  _393
REMARK  158  A    between atoms: _393  and  _394
REMARK  159  A    between atoms: _399  and  _400
REMARK  160  A    between atoms: _402  and  _404
REMARK  161  A    between atoms: _404  and  _405
REMARK  162  A    between atoms: _404  and  _407
REMARK  163  A    between atoms: _407  and  _408
REMARK  164  A    between atoms: _408  and  _409
REMARK  165  A    between atoms: _414  and  _416
REMARK  166  A    between atoms: _416  and  _417
REMARK  167  A    between atoms: _416  and  _419
REMARK  168  A    between atoms: _419  and  _420
REMARK  169  A    between atoms: _423  and  _425
REMARK  170  A    between atoms: _425  and  _426
REMARK  171  A    between atoms: _425  and  _428
REMARK  172  A    between atoms: _428  and  _429
REMARK  173  A    between atoms: _432  and  _434
REMARK  174  A    between atoms: _434  and  _435
REMARK  175  A    between atoms: _434  and  _437
REMARK  176  A    between atoms: _440  and  _442
REMARK  177  A    between atoms: _442  and  _443
REMARK  178  A    between atoms: _445  and  _447
REMARK  179  A    between atoms: _447  and  _448
REMARK  180  A    between atoms: _447  and  _450
REMARK  181  A    between atoms: _454  and  _455
REMARK  182  A    between atoms: _460  and  _462
REMARK  183  A    between atoms: _462  and  _463
REMARK  184  A    between atoms: _462  and  _465
REMARK  185  A    between atoms: _465  and  _466
REMARK  186  A    between atoms: _469  and  _471
REMARK  187  A    between atoms: _471  and  _472
REMARK  188  A    between atoms: _471  and  _474
REMARK  189  A    between atoms: _477  and  _479
REMARK  190  A    between atoms: _479  and  _480
REMARK  191  A    between atoms: _479  and  _482
REMARK  192  A    between atoms: _482  and  _483
REMARK  193  A    between atoms: _483  and  _484
REMARK  194  A    between atoms: _484  and  _485
REMARK  195  A    between atoms: _494  and  _496
REMARK  196  A    between atoms: _496  and  _497
REMARK  197  A    between atoms: _496  and  _499
REMARK  198  A    between atoms: _499  and  _500
REMARK  199  A    between atoms: _500  and  _501
REMARK  200  A    between atoms: _504  and  _506
REMARK  201  A    between atoms: _506  and  _507
REMARK  202  A    between atoms: _506  and  _509
REMARK  203  A    between atoms: _509  and  _510
REMARK  204  A    between atoms: _513  and  _515
REMARK  205  A    between atoms: _515  and  _516
REMARK  206  A    between atoms: _519  and  _521
REMARK  207  A    between atoms: _521  and  _522
REMARK  208  A    between atoms: _521  and  _524
REMARK  209  A    between atoms: _524  and  _525
REMARK  210  A    between atoms: _525  and  _526
REMARK  211  A    between atoms: _528  and  _530
REMARK  212  A    between atoms: _530  and  _531
REMARK  213  A    between atoms: _530  and  _533
REMARK  214  A    between atoms: _533  and  _534
REMARK  215  A    between atoms: _536  and  _538
REMARK  216  A    between atoms: _538  and  _539
REMARK  217  A    between atoms: _538  and  _541
REMARK  218  A    between atoms: _541  and  _542
REMARK  219  A    between atoms: _544  and  _546
REMARK  220  A    between atoms: _546  and  _547
REMARK  221  A    between atoms: _546  and  _549
REMARK  222  A    between atoms: _549  and  _550
REMARK  223  A    between atoms: _550  and  _551
REMARK  224  A    between atoms: _551  and  _552
REMARK  225  A    between atoms: _561  and  _563
REMARK  226  A    between atoms: _563  and  _564
REMARK  227  A    between atoms: _563  and  _566
REMARK  228  A    between atoms: _566  and  _567
REMARK  229  A    between atoms: _572  and  _574
REMARK  230  A    between atoms: _574  and  _575
REMARK  231  A    between atoms: _574  and  _577
REMARK  232  A    between atoms: _577  and  _578
REMARK  233  A    between atoms: _581  and  _583
REMARK  234  A    between atoms: _583  and  _584
REMARK  235  A    between atoms: _583  and  _586
REMARK  236  A    between atoms: _586  and  _587
REMARK                            x       y       z     vdW  Elec       q    Type
REMARK                         _______ _______ _______ _____ _____    ______ ____
ROOT
ATOM      1  O   HOH     1      19.962   4.297   2.819  0.00  0.00    +0.000 OA
ENDROOT
TORSDOF 0
REMARK  Name = ../refined-set-2016/3coy/3coy_pocket.pdb
REMARK  236 active torsions:
REMARK  status: ('A' for Active; 'I' for Inactive)
REMARK    1  A    between atoms: _1  and  _3
REMARK    2  A    between atoms: _3  and  _4
REMARK    3  A    between atoms: _3  and  _6
REMARK    4  A    between atoms: _10  and  _11
REMARK    5  A    between atoms: _16  and  _18
REMARK    6  A    between atoms: _18  and  _19
REMARK    7  A    between atoms: _18  and  _21
REMARK    8  A    between atoms: _21  and  _22
REMARK    9  A    between atoms: _25  and  _27
REMARK   10  A    between atoms: _27  and  _28
REMARK   11  A    between atoms: _27  and  _30
REMARK   12  A    between atoms: _30  and  _31
REMARK   13  A    between atoms: _31  and  _32
REMARK   14  A    between atoms: _34  and  _36
REMARK   15  A    between atoms: _36  and  _37
REMARK   16  A    between atoms: _39  and  _41
REMARK   17  A    between atoms: _41  and  _42
REMARK   18  A    between atoms: _45  and  _47
REMARK   19  A    between atoms: _47  and  _48
REMARK   20  A    between atoms: _47  and  _50
REMARK   21  A    between atoms: _50  and  _51
REMARK   22  A    between atoms: _54  and  _56
REMARK   23  A    between atoms: _56  and  _57
REMARK   24  A    between atoms: _56  and  _59
REMARK   25  A    between atoms: _59  and  _60
REMARK   26  A    between atoms: _65  and  _67
REMARK   27  A    between atoms: _67  and  _68
REMARK   28  A    between atoms: _67  and  _70
REMARK   29  A    between atoms: _70  and  _71
REMARK   30  A    between atoms: _71  and  _72
REMARK   31  A    between atoms: _75  and  _77
REMARK   32  A    between atoms: _77  and  _78
REMARK   33  A    between atoms: _80  and  _82
REMARK   34  A    between atoms: _82  and  _83
REMARK   35  A    between atoms: _82  and  _85
REMARK   36  A    between atoms: _85  and  _86
REMARK   37  A    between atoms: _91  and  _93
REMARK   38  A    between atoms: _93  and  _94
REMARK   39  A    between atoms: _93  and  _96
REMARK   40  A    between atoms: _96  and  _97
REMARK   41  A    between atoms: _100  and  _102
REMARK   42  A    between atoms: _102  and  _103
REMARK   43  A    between atoms: _106  and  _108
REMARK   44  A    between atoms: _108  and  _109
REMARK   45  A    between atoms: _108  and  _111
REMARK   46  A    between atoms: _111  and  _112
REMARK   47  A    between atoms: _115  and  _117
REMARK   48  A    between atoms: _117  and  _118
REMARK   49  A    between atoms: _117  and  _120
REMARK   50  A    between atoms: _123  and  _125
REMARK   51  A    between atoms: _125  and  _126
REMARK   52  A    between atoms: _125  and  _128
REMARK   53  A    between atoms: _131  and  _133
REMARK   54  A    between atoms: _133  and  _134
REMARK   55  A    between atoms: _133  and  _136
REMARK   56  A    between atoms: _136  and  _137
REMARK   57  A    between atoms: _139  and  _141
REMARK   58  A    between atoms: _141  and  _142
REMARK   59  A    between atoms: _141  and  _144
REMARK   60  A    between atoms: _144  and  _145
REMARK   61  A    between atoms: _148  and  _150
REMARK   62  A    between atoms: _150  and  _151
REMARK   63  A    between atoms: _150  and  _153
REMARK   64  A    between atoms: _153  and  _154
REMARK   65  A    between atoms: _160  and  _162
REMARK   66  A    between atoms: _162  and  _163
REMARK   67  A    between atoms: _162  and  _165
REMARK   68  A    between atoms: _168  and  _170
REMARK   69  A    between atoms: _170  and  _171
REMARK   70  A    between atoms: _170  and  _173
REMARK   71  A    between atoms: _173  and  _174
REMARK   72  A    between atoms: _179  and  _181
REMARK   73  A    between atoms: _181  and  _182
REMARK   74  A    between atoms: _181  and  _184
REMARK   75  A    between atoms: _184  and  _185
REMARK   76  A    between atoms: _185  and  _186
REMARK   77  A    between atoms: _191  and  _193
REMARK   78  A    between atoms: _193  and  _194
REMARK   79  A    between atoms: _193  and  _196
REMARK   80  A    between atoms: _196  and  _197
REMARK   81  A    between atoms: _203  and  _205
REMARK   82  A    between atoms: _205  and  _206
REMARK   83  A    between atoms: _205  and  _208
REMARK   84  A    between atoms: _208  and  _209
REMARK   85  A    between atoms: _214  and  _215
REMARK   86  A    between atoms: _217  and  _219
REMARK   87  A    between atoms: _219  and  _220
REMARK   88  A    between atoms: _219  and  _222
REMARK   89  A    between atoms: _222  and  _223
REMARK   90  A    between atoms: _228  and  _229
REMARK   91  A    between atoms: _231  and  _233
REMARK   92  A    between atoms: _233  and  _234
REMARK   93  A    between atoms: _233  and  _236
REMARK   94  A    between atoms: _236  and  _237
REMARK   95  A    between atoms: _242  and  _244
REMARK   96  A    between atoms: _244  and  _245
REMARK   97  A    between atoms: _244  and  _247
REMARK   98  A    between atoms: _247  and  _248
REMARK   99  A    between atoms: _254  and  _256
REMARK  100  A    between atoms: _256  and  _257
REMARK  101  A    between atoms: _259  and  _261
REMARK  102  A    between atoms: _261  and  _262
REMARK  103  A    between atoms: _261  and  _264
REMARK  104  A    between atoms: _267  and  _269
REMARK  105  A    between atoms: _269  and  _270
REMARK  106  A    between atoms: _269  and  _272
REMARK  107  A    between atoms: _272  and  _273
REMARK  108  A    between atoms: _276  and  _278
REMARK  109  A    between atoms: _278  and  _279
REMARK  110  A    between atoms: _278  and  _281
REMARK  111  A    between atoms: _281  and  _282
REMARK  112  A    between atoms: _285  and  _287
REMARK  113  A    between atoms: _287  and  _288
REMARK  114  A    between atoms: _287  and  _290
REMARK  115  A    between atoms: _293  and  _295
REMARK  116  A    between atoms: _295  and  _296
REMARK  117  A    between atoms: _295  and  _298
REMARK  118  A    between atoms: _301  and  _303
REMARK  119  A    between atoms: _303  and  _304
REMARK  120  A    between atoms: _303  and  _306
REMARK  121  A    between atoms: _306  and  _307
REMARK  122  A    between atoms: _310  and  _312
REMARK  123  A    between atoms: _312  and  _313
REMARK  124  A    between atoms: _312  and  _315
REMARK  125  A    between atoms: _315  and  _316
REMARK  126  A    between atoms: _319  and  _321
REMARK  127  A    between atoms: _321  and  _322
REMARK  128  A    between atoms: _321  and  _324
REMARK  129  A    between atoms: _327  and  _329
REMARK  130  A    between atoms: _329  and  _330
REMARK  131  A    between atoms: _329  and  _332
REMARK  132  A    between atoms: _332  and  _333
REMARK  133  A    between atoms: _339  and  _341
REMARK  134  A    between atoms: _341  and  _342
REMARK  135  A    between atoms: _341  and  _344
REMARK  136  A    between atoms: _344  and  _345
REMARK  137  A    between atoms: _351  and  _353
REMARK  138  A    between atoms: _353  and  _354
REMARK  139  A    between atoms: _356  and  _358
REMARK  140  A    between atoms: _358  and  _359
REMARK  141  A    between atoms: _358  and  _361
REMARK  142  A    between atoms: _361  and  _362
REMARK  143  A    between atoms: _362  and  _363
REMARK  144  A    between atoms: _366  and  _368
REMARK  145  A    between atoms: _368  and  _369
REMARK  146  A    between atoms: _368  and  _371
REMARK  147  A    between atoms: _371  and  _372
REMARK  148  A    between atoms: _372  and  _373
REMARK  149  A    between atoms: _373  and  _374
REMARK  150  A    between atoms: _374  and  _375
REMARK  151  A    between atoms: _379  and  _381
REMARK  152  A    between atoms: _381  and  _382
REMARK  153  A    between atoms: _381  and  _384
REMARK  154  A    between atoms: _384  and  _385
REMARK  155  A    between atoms: _388  and  _390
REMARK  156  A    between atoms: _390  and  _391
REMARK  157  A    between atoms: _390  and  _393
REMARK  158  A    between atoms: _393  and  _394
REMARK  159  A    between atoms: _399  and  _400
REMARK  160  A    between atoms: _402  and  _404
REMARK  161  A    between atoms: _404  and  _405
REMARK  162  A    between atoms: _404  and  _407
REMARK  163  A    between atoms: _407  and  _408
REMARK  164  A    between atoms: _408  and  _409
REMARK  165  A    between atoms: _414  and  _416
REMARK  166  A    between atoms: _416  and  _417
REMARK  167  A    between atoms: _416  and  _419
REMARK  168  A    between atoms: _419  and  _420
REMARK  169  A    between atoms: _423  and  _425
REMARK  170  A    between atoms: _425  and  _426
REMARK  171  A    between atoms: _425  and  _428
REMARK  172  A    between atoms: _428  and  _429
REMARK  173  A    between atoms: _432  and  _434
REMARK  174  A    between atoms: _434  and  _435
REMARK  175  A    between atoms: _434  and  _437
REMARK  176  A    between atoms: _440  and  _442
REMARK  177  A    between atoms: _442  and  _443
REMARK  178  A    between atoms: _445  and  _447
REMARK  179  A    between atoms: _447  and  _448
REMARK  180  A    between atoms: _447  and  _450
REMARK  181  A    between atoms: _454  and  _455
REMARK  182  A    between atoms: _460  and  _462
REMARK  183  A    between atoms: _462  and  _463
REMARK  184  A    between atoms: _462  and  _465
REMARK  185  A    between atoms: _465  and  _466
REMARK  186  A    between atoms: _469  and  _471
REMARK  187  A    between atoms: _471  and  _472
REMARK  188  A    between atoms: _471  and  _474
REMARK  189  A    between atoms: _477  and  _479
REMARK  190  A    between atoms: _479  and  _480
REMARK  191  A    between atoms: _479  and  _482
REMARK  192  A    between atoms: _482  and  _483
REMARK  193  A    between atoms: _483  and  _484
REMARK  194  A    between atoms: _484  and  _485
REMARK  195  A    between atoms: _494  and  _496
REMARK  196  A    between atoms: _496  and  _497
REMARK  197  A    between atoms: _496  and  _499
REMARK  198  A    between atoms: _499  and  _500
REMARK  199  A    between atoms: _500  and  _501
REMARK  200  A    between atoms: _504  and  _506
REMARK  201  A    between atoms: _506  and  _507
REMARK  202  A    between atoms: _506  and  _509
REMARK  203  A    between atoms: _509  and  _510
REMARK  204  A    between atoms: _513  and  _515
REMARK  205  A    between atoms: _515  and  _516
REMARK  206  A    between atoms: _519  and  _521
REMARK  207  A    between atoms: _521  and  _522
REMARK  208  A    between atoms: _521  and  _524
REMARK  209  A    between atoms: _524  and  _525
REMARK  210  A    between atoms: _525  and  _526
REMARK  211  A    between atoms: _528  and  _530
REMARK  212  A    between atoms: _530  and  _531
REMARK  213  A    between atoms: _530  and  _533
REMARK  214  A    between atoms: _533  and  _534
REMARK  215  A    between atoms: _536  and  _538
REMARK  216  A    between atoms: _538  and  _539
REMARK  217  A    between atoms: _538  and  _541
REMARK  218  A    between atoms: _541  and  _542
REMARK  219  A    between atoms: _544  and  _546
REMARK  220  A    between atoms: _546  and  _547
REMARK  221  A    between atoms: _546  and  _549
REMARK  222  A    between atoms: _549  and  _550
REMARK  223  A    between atoms: _550  and  _551
REMARK  224  A    between atoms: _551  and  _552
REMARK  225  A    between atoms: _561  and  _563
REMARK  226  A    between atoms: _563  and  _564
REMARK  227  A    between atoms: _563  and  _566
REMARK  228  A    between atoms: _566  and  _567
REMARK  229  A    between atoms: _572  and  _574
REMARK  230  A    between atoms: _574  and  _575
REMARK  231  A    between atoms: _574  and  _577
REMARK  232  A    between atoms: _577  and  _578
REMARK  233  A    between atoms: _581  and  _583
REMARK  234  A    between atoms: _583  and  _584
REMARK  235  A    between atoms: _583  and  _586
REMARK  236  A    between atoms: _586  and  _587
REMARK                            x       y       z     vdW  Elec       q    Type
REMARK                         _______ _______ _______ _____ _____    ______ ____
ROOT
ATOM      1  O   HOH     1      19.030   5.008   5.251  0.00  0.00    +0.000 OA
ENDROOT
TORSDOF 0
REMARK  Name = ../refined-set-2016/3coy/3coy_pocket.pdb
REMARK  236 active torsions:
REMARK  status: ('A' for Active; 'I' for Inactive)
REMARK    1  A    between atoms: _1  and  _3
REMARK    2  A    between atoms: _3  and  _4
REMARK    3  A    between atoms: _3  and  _6
REMARK    4  A    between atoms: _10  and  _11
REMARK    5  A    between atoms: _16  and  _18
REMARK    6  A    between atoms: _18  and  _19
REMARK    7  A    between atoms: _18  and  _21
REMARK    8  A    between atoms: _21  and  _22
REMARK    9  A    between atoms: _25  and  _27
REMARK   10  A    between atoms: _27  and  _28
REMARK   11  A    between atoms: _27  and  _30
REMARK   12  A    between atoms: _30  and  _31
REMARK   13  A    between atoms: _31  and  _32
REMARK   14  A    between atoms: _34  and  _36
REMARK   15  A    between atoms: _36  and  _37
REMARK   16  A    between atoms: _39  and  _41
REMARK   17  A    between atoms: _41  and  _42
REMARK   18  A    between atoms: _45  and  _47
REMARK   19  A    between atoms: _47  and  _48
REMARK   20  A    between atoms: _47  and  _50
REMARK   21  A    between atoms: _50  and  _51
REMARK   22  A    between atoms: _54  and  _56
REMARK   23  A    between atoms: _56  and  _57
REMARK   24  A    between atoms: _56  and  _59
REMARK   25  A    between atoms: _59  and  _60
REMARK   26  A    between atoms: _65  and  _67
REMARK   27  A    between atoms: _67  and  _68
REMARK   28  A    between atoms: _67  and  _70
REMARK   29  A    between atoms: _70  and  _71
REMARK   30  A    between atoms: _71  and  _72
REMARK   31  A    between atoms: _75  and  _77
REMARK   32  A    between atoms: _77  and  _78
REMARK   33  A    between atoms: _80  and  _82
REMARK   34  A    between atoms: _82  and  _83
REMARK   35  A    between atoms: _82  and  _85
REMARK   36  A    between atoms: _85  and  _86
REMARK   37  A    between atoms: _91  and  _93
REMARK   38  A    between atoms: _93  and  _94
REMARK   39  A    between atoms: _93  and  _96
REMARK   40  A    between atoms: _96  and  _97
REMARK   41  A    between atoms: _100  and  _102
REMARK   42  A    between atoms: _102  and  _103
REMARK   43  A    between atoms: _106  and  _108
REMARK   44  A    between atoms: _108  and  _109
REMARK   45  A    between atoms: _108  and  _111
REMARK   46  A    between atoms: _111  and  _112
REMARK   47  A    between atoms: _115  and  _117
REMARK   48  A    between atoms: _117  and  _118
REMARK   49  A    between atoms: _117  and  _120
REMARK   50  A    between atoms: _123  and  _125
REMARK   51  A    between atoms: _125  and  _126
REMARK   52  A    between atoms: _125  and  _128
REMARK   53  A    between atoms: _131  and  _133
REMARK   54  A    between atoms: _133  and  _134
REMARK   55  A    between atoms: _133  and  _136
REMARK   56  A    between atoms: _136  and  _137
REMARK   57  A    between atoms: _139  and  _141
REMARK   58  A    between atoms: _141  and  _142
REMARK   59  A    between atoms: _141  and  _144
REMARK   60  A    between atoms: _144  and  _145
REMARK   61  A    between atoms: _148  and  _150
REMARK   62  A    between atoms: _150  and  _151
REMARK   63  A    between atoms: _150  and  _153
REMARK   64  A    between atoms: _153  and  _154
REMARK   65  A    between atoms: _160  and  _162
REMARK   66  A    between atoms: _162  and  _163
REMARK   67  A    between atoms: _162  and  _165
REMARK   68  A    between atoms: _168  and  _170
REMARK   69  A    between atoms: _170  and  _171
REMARK   70  A    between atoms: _170  and  _173
REMARK   71  A    between atoms: _173  and  _174
REMARK   72  A    between atoms: _179  and  _181
REMARK   73  A    between atoms: _181  and  _182
REMARK   74  A    between atoms: _181  and  _184
REMARK   75  A    between atoms: _184  and  _185
REMARK   76  A    between atoms: _185  and  _186
REMARK   77  A    between atoms: _191  and  _193
REMARK   78  A    between atoms: _193  and  _194
REMARK   79  A    between atoms: _193  and  _196
REMARK   80  A    between atoms: _196  and  _197
REMARK   81  A    between atoms: _203  and  _205
REMARK   82  A    between atoms: _205  and  _206
REMARK   83  A    between atoms: _205  and  _208
REMARK   84  A    between atoms: _208  and  _209
REMARK   85  A    between atoms: _214  and  _215
REMARK   86  A    between atoms: _217  and  _219
REMARK   87  A    between atoms: _219  and  _220
REMARK   88  A    between atoms: _219  and  _222
REMARK   89  A    between atoms: _222  and  _223
REMARK   90  A    between atoms: _228  and  _229
REMARK   91  A    between atoms: _231  and  _233
REMARK   92  A    between atoms: _233  and  _234
REMARK   93  A    between atoms: _233  and  _236
REMARK   94  A    between atoms: _236  and  _237
REMARK   95  A    between atoms: _242  and  _244
REMARK   96  A    between atoms: _244  and  _245
REMARK   97  A    between atoms: _244  and  _247
REMARK   98  A    between atoms: _247  and  _248
REMARK   99  A    between atoms: _254  and  _256
REMARK  100  A    between atoms: _256  and  _257
REMARK  101  A    between atoms: _259  and  _261
REMARK  102  A    between atoms: _261  and  _262
REMARK  103  A    between atoms: _261  and  _264
REMARK  104  A    between atoms: _267  and  _269
REMARK  105  A    between atoms: _269  and  _270
REMARK  106  A    between atoms: _269  and  _272
REMARK  107  A    between atoms: _272  and  _273
REMARK  108  A    between atoms: _276  and  _278
REMARK  109  A    between atoms: _278  and  _279
REMARK  110  A    between atoms: _278  and  _281
REMARK  111  A    between atoms: _281  and  _282
REMARK  112  A    between atoms: _285  and  _287
REMARK  113  A    between atoms: _287  and  _288
REMARK  114  A    between atoms: _287  and  _290
REMARK  115  A    between atoms: _293  and  _295
REMARK  116  A    between atoms: _295  and  _296
REMARK  117  A    between atoms: _295  and  _298
REMARK  118  A    between atoms: _301  and  _303
REMARK  119  A    between atoms: _303  and  _304
REMARK  120  A    between atoms: _303  and  _306
REMARK  121  A    between atoms: _306  and  _307
REMARK  122  A    between atoms: _310  and  _312
REMARK  123  A    between atoms: _312  and  _313
REMARK  124  A    between atoms: _312  and  _315
REMARK  125  A    between atoms: _315  and  _316
REMARK  126  A    between atoms: _319  and  _321
REMARK  127  A    between atoms: _321  and  _322
REMARK  128  A    between atoms: _321  and  _324
REMARK  129  A    between atoms: _327  and  _329
REMARK  130  A    between atoms: _329  and  _330
REMARK  131  A    between atoms: _329  and  _332
REMARK  132  A    between atoms: _332  and  _333
REMARK  133  A    between atoms: _339  and  _341
REMARK  134  A    between atoms: _341  and  _342
REMARK  135  A    between atoms: _341  and  _344
REMARK  136  A    between atoms: _344  and  _345
REMARK  137  A    between atoms: _351  and  _353
REMARK  138  A    between atoms: _353  and  _354
REMARK  139  A    between atoms: _356  and  _358
REMARK  140  A    between atoms: _358  and  _359
REMARK  141  A    between atoms: _358  and  _361
REMARK  142  A    between atoms: _361  and  _362
REMARK  143  A    between atoms: _362  and  _363
REMARK  144  A    between atoms: _366  and  _368
REMARK  145  A    between atoms: _368  and  _369
REMARK  146  A    between atoms: _368  and  _371
REMARK  147  A    between atoms: _371  and  _372
REMARK  148  A    between atoms: _372  and  _373
REMARK  149  A    between atoms: _373  and  _374
REMARK  150  A    between atoms: _374  and  _375
REMARK  151  A    between atoms: _379  and  _381
REMARK  152  A    between atoms: _381  and  _382
REMARK  153  A    between atoms: _381  and  _384
REMARK  154  A    between atoms: _384  and  _385
REMARK  155  A    between atoms: _388  and  _390
REMARK  156  A    between atoms: _390  and  _391
REMARK  157  A    between atoms: _390  and  _393
REMARK  158  A    between atoms: _393  and  _394
REMARK  159  A    between atoms: _399  and  _400
REMARK  160  A    between atoms: _402  and  _404
REMARK  161  A    between atoms: _404  and  _405
REMARK  162  A    between atoms: _404  and  _407
REMARK  163  A    between atoms: _407  and  _408
REMARK  164  A    between atoms: _408  and  _409
REMARK  165  A    between atoms: _414  and  _416
REMARK  166  A    between atoms: _416  and  _417
REMARK  167  A    between atoms: _416  and  _419
REMARK  168  A    between atoms: _419  and  _420
REMARK  169  A    between atoms: _423  and  _425
REMARK  170  A    between atoms: _425  and  _426
REMARK  171  A    between atoms: _425  and  _428
REMARK  172  A    between atoms: _428  and  _429
REMARK  173  A    between atoms: _432  and  _434
REMARK  174  A    between atoms: _434  and  _435
REMARK  175  A    between atoms: _434  and  _437
REMARK  176  A    between atoms: _440  and  _442
REMARK  177  A    between atoms: _442  and  _443
REMARK  178  A    between atoms: _445  and  _447
REMARK  179  A    between atoms: _447  and  _448
REMARK  180  A    between atoms: _447  and  _450
REMARK  181  A    between atoms: _454  and  _455
REMARK  182  A    between atoms: _460  and  _462
REMARK  183  A    between atoms: _462  and  _463
REMARK  184  A    between atoms: _462  and  _465
REMARK  185  A    between atoms: _465  and  _466
REMARK  186  A    between atoms: _469  and  _471
REMARK  187  A    between atoms: _471  and  _472
REMARK  188  A    between atoms: _471  and  _474
REMARK  189  A    between atoms: _477  and  _479
REMARK  190  A    between atoms: _479  and  _480
REMARK  191  A    between atoms: _479  and  _482
REMARK  192  A    between atoms: _482  and  _483
REMARK  193  A    between atoms: _483  and  _484
REMARK  194  A    between atoms: _484  and  _485
REMARK  195  A    between atoms: _494  and  _496
REMARK  196  A    between atoms: _496  and  _497
REMARK  197  A    between atoms: _496  and  _499
REMARK  198  A    between atoms: _499  and  _500
REMARK  199  A    between atoms: _500  and  _501
REMARK  200  A    between atoms: _504  and  _506
REMARK  201  A    between atoms: _506  and  _507
REMARK  202  A    between atoms: _506  and  _509
REMARK  203  A    between atoms: _509  and  _510
REMARK  204  A    between atoms: _513  and  _515
REMARK  205  A    between atoms: _515  and  _516
REMARK  206  A    between atoms: _519  and  _521
REMARK  207  A    between atoms: _521  and  _522
REMARK  208  A    between atoms: _521  and  _524
REMARK  209  A    between atoms: _524  and  _525
REMARK  210  A    between atoms: _525  and  _526
REMARK  211  A    between atoms: _528  and  _530
REMARK  212  A    between atoms: _530  and  _531
REMARK  213  A    between atoms: _530  and  _533
REMARK  214  A    between atoms: _533  and  _534
REMARK  215  A    between atoms: _536  and  _538
REMARK  216  A    between atoms: _538  and  _539
REMARK  217  A    between atoms: _538  and  _541
REMARK  218  A    between atoms: _541  and  _542
REMARK  219  A    between atoms: _544  and  _546
REMARK  220  A    between atoms: _546  and  _547
REMARK  221  A    between atoms: _546  and  _549
REMARK  222  A    between atoms: _549  and  _550
REMARK  223  A    between atoms: _550  and  _551
REMARK  224  A    between atoms: _551  and  _552
REMARK  225  A    between atoms: _561  and  _563
REMARK  226  A    between atoms: _563  and  _564
REMARK  227  A    between atoms: _563  and  _566
REMARK  228  A    between atoms: _566  and  _567
REMARK  229  A    between atoms: _572  and  _574
REMARK  230  A    between atoms: _574  and  _575
REMARK  231  A    between atoms: _574  and  _577
REMARK  232  A    between atoms: _577  and  _578
REMARK  233  A    between atoms: _581  and  _583
REMARK  234  A    between atoms: _583  and  _584
REMARK  235  A    between atoms: _583  and  _586
REMARK  236  A    between atoms: _586  and  _587
REMARK                            x       y       z     vdW  Elec       q    Type
REMARK                         _______ _______ _______ _____ _____    ______ ____
ROOT
ATOM      1  O   HOH     1       6.108   9.271  -8.562  0.00  0.00    +0.000 OA
ENDROOT
TORSDOF 0
REMARK  Name = ../refined-set-2016/3coy/3coy_pocket.pdb
REMARK  236 active torsions:
REMARK  status: ('A' for Active; 'I' for Inactive)
REMARK    1  A    between atoms: _1  and  _3
REMARK    2  A    between atoms: _3  and  _4
REMARK    3  A    between atoms: _3  and  _6
REMARK    4  A    between atoms: _10  and  _11
REMARK    5  A    between atoms: _16  and  _18
REMARK    6  A    between atoms: _18  and  _19
REMARK    7  A    between atoms: _18  and  _21
REMARK    8  A    between atoms: _21  and  _22
REMARK    9  A    between atoms: _25  and  _27
REMARK   10  A    between atoms: _27  and  _28
REMARK   11  A    between atoms: _27  and  _30
REMARK   12  A    between atoms: _30  and  _31
REMARK   13  A    between atoms: _31  and  _32
REMARK   14  A    between atoms: _34  and  _36
REMARK   15  A    between atoms: _36  and  _37
REMARK   16  A    between atoms: _39  and  _41
REMARK   17  A    between atoms: _41  and  _42
REMARK   18  A    between atoms: _45  and  _47
REMARK   19  A    between atoms: _47  and  _48
REMARK   20  A    between atoms: _47  and  _50
REMARK   21  A    between atoms: _50  and  _51
REMARK   22  A    between atoms: _54  and  _56
REMARK   23  A    between atoms: _56  and  _57
REMARK   24  A    between atoms: _56  and  _59
REMARK   25  A    between atoms: _59  and  _60
REMARK   26  A    between atoms: _65  and  _67
REMARK   27  A    between atoms: _67  and  _68
REMARK   28  A    between atoms: _67  and  _70
REMARK   29  A    between atoms: _70  and  _71
REMARK   30  A    between atoms: _71  and  _72
REMARK   31  A    between atoms: _75  and  _77
REMARK   32  A    between atoms: _77  and  _78
REMARK   33  A    between atoms: _80  and  _82
REMARK   34  A    between atoms: _82  and  _83
REMARK   35  A    between atoms: _82  and  _85
REMARK   36  A    between atoms: _85  and  _86
REMARK   37  A    between atoms: _91  and  _93
REMARK   38  A    between atoms: _93  and  _94
REMARK   39  A    between atoms: _93  and  _96
REMARK   40  A    between atoms: _96  and  _97
REMARK   41  A    between atoms: _100  and  _102
REMARK   42  A    between atoms: _102  and  _103
REMARK   43  A    between atoms: _106  and  _108
REMARK   44  A    between atoms: _108  and  _109
REMARK   45  A    between atoms: _108  and  _111
REMARK   46  A    between atoms: _111  and  _112
REMARK   47  A    between atoms: _115  and  _117
REMARK   48  A    between atoms: _117  and  _118
REMARK   49  A    between atoms: _117  and  _120
REMARK   50  A    between atoms: _123  and  _125
REMARK   51  A    between atoms: _125  and  _126
REMARK   52  A    between atoms: _125  and  _128
REMARK   53  A    between atoms: _131  and  _133
REMARK   54  A    between atoms: _133  and  _134
REMARK   55  A    between atoms: _133  and  _136
REMARK   56  A    between atoms: _136  and  _137
REMARK   57  A    between atoms: _139  and  _141
REMARK   58  A    between atoms: _141  and  _142
REMARK   59  A    between atoms: _141  and  _144
REMARK   60  A    between atoms: _144  and  _145
REMARK   61  A    between atoms: _148  and  _150
REMARK   62  A    between atoms: _150  and  _151
REMARK   63  A    between atoms: _150  and  _153
REMARK   64  A    between atoms: _153  and  _154
REMARK   65  A    between atoms: _160  and  _162
REMARK   66  A    between atoms: _162  and  _163
REMARK   67  A    between atoms: _162  and  _165
REMARK   68  A    between atoms: _168  and  _170
REMARK   69  A    between atoms: _170  and  _171
REMARK   70  A    between atoms: _170  and  _173
REMARK   71  A    between atoms: _173  and  _174
REMARK   72  A    between atoms: _179  and  _181
REMARK   73  A    between atoms: _181  and  _182
REMARK   74  A    between atoms: _181  and  _184
REMARK   75  A    between atoms: _184  and  _185
REMARK   76  A    between atoms: _185  and  _186
REMARK   77  A    between atoms: _191  and  _193
REMARK   78  A    between atoms: _193  and  _194
REMARK   79  A    between atoms: _193  and  _196
REMARK   80  A    between atoms: _196  and  _197
REMARK   81  A    between atoms: _203  and  _205
REMARK   82  A    between atoms: _205  and  _206
REMARK   83  A    between atoms: _205  and  _208
REMARK   84  A    between atoms: _208  and  _209
REMARK   85  A    between atoms: _214  and  _215
REMARK   86  A    between atoms: _217  and  _219
REMARK   87  A    between atoms: _219  and  _220
REMARK   88  A    between atoms: _219  and  _222
REMARK   89  A    between atoms: _222  and  _223
REMARK   90  A    between atoms: _228  and  _229
REMARK   91  A    between atoms: _231  and  _233
REMARK   92  A    between atoms: _233  and  _234
REMARK   93  A    between atoms: _233  and  _236
REMARK   94  A    between atoms: _236  and  _237
REMARK   95  A    between atoms: _242  and  _244
REMARK   96  A    between atoms: _244  and  _245
REMARK   97  A    between atoms: _244  and  _247
REMARK   98  A    between atoms: _247  and  _248
REMARK   99  A    between atoms: _254  and  _256
REMARK  100  A    between atoms: _256  and  _257
REMARK  101  A    between atoms: _259  and  _261
REMARK  102  A    between atoms: _261  and  _262
REMARK  103  A    between atoms: _261  and  _264
REMARK  104  A    between atoms: _267  and  _269
REMARK  105  A    between atoms: _269  and  _270
REMARK  106  A    between atoms: _269  and  _272
REMARK  107  A    between atoms: _272  and  _273
REMARK  108  A    between atoms: _276  and  _278
REMARK  109  A    between atoms: _278  and  _279
REMARK  110  A    between atoms: _278  and  _281
REMARK  111  A    between atoms: _281  and  _282
REMARK  112  A    between atoms: _285  and  _287
REMARK  113  A    between atoms: _287  and  _288
REMARK  114  A    between atoms: _287  and  _290
REMARK  115  A    between atoms: _293  and  _295
REMARK  116  A    between atoms: _295  and  _296
REMARK  117  A    between atoms: _295  and  _298
REMARK  118  A    between atoms: _301  and  _303
REMARK  119  A    between atoms: _303  and  _304
REMARK  120  A    between atoms: _303  and  _306
REMARK  121  A    between atoms: _306  and  _307
REMARK  122  A    between atoms: _310  and  _312
REMARK  123  A    between atoms: _312  and  _313
REMARK  124  A    between atoms: _312  and  _315
REMARK  125  A    between atoms: _315  and  _316
REMARK  126  A    between atoms: _319  and  _321
REMARK  127  A    between atoms: _321  and  _322
REMARK  128  A    between atoms: _321  and  _324
REMARK  129  A    between atoms: _327  and  _329
REMARK  130  A    between atoms: _329  and  _330
REMARK  131  A    between atoms: _329  and  _332
REMARK  132  A    between atoms: _332  and  _333
REMARK  133  A    between atoms: _339  and  _341
REMARK  134  A    between atoms: _341  and  _342
REMARK  135  A    between atoms: _341  and  _344
REMARK  136  A    between atoms: _344  and  _345
REMARK  137  A    between atoms: _351  and  _353
REMARK  138  A    between atoms: _353  and  _354
REMARK  139  A    between atoms: _356  and  _358
REMARK  140  A    between atoms: _358  and  _359
REMARK  141  A    between atoms: _358  and  _361
REMARK  142  A    between atoms: _361  and  _362
REMARK  143  A    between atoms: _362  and  _363
REMARK  144  A    between atoms: _366  and  _368
REMARK  145  A    between atoms: _368  and  _369
REMARK  146  A    between atoms: _368  and  _371
REMARK  147  A    between atoms: _371  and  _372
REMARK  148  A    between atoms: _372  and  _373
REMARK  149  A    between atoms: _373  and  _374
REMARK  150  A    between atoms: _374  and  _375
REMARK  151  A    between atoms: _379  and  _381
REMARK  152  A    between atoms: _381  and  _382
REMARK  153  A    between atoms: _381  and  _384
REMARK  154  A    between atoms: _384  and  _385
REMARK  155  A    between atoms: _388  and  _390
REMARK  156  A    between atoms: _390  and  _391
REMARK  157  A    between atoms: _390  and  _393
REMARK  158  A    between atoms: _393  and  _394
REMARK  159  A    between atoms: _399  and  _400
REMARK  160  A    between atoms: _402  and  _404
REMARK  161  A    between atoms: _404  and  _405
REMARK  162  A    between atoms: _404  and  _407
REMARK  163  A    between atoms: _407  and  _408
REMARK  164  A    between atoms: _408  and  _409
REMARK  165  A    between atoms: _414  and  _416
REMARK  166  A    between atoms: _416  and  _417
REMARK  167  A    between atoms: _416  and  _419
REMARK  168  A    between atoms: _419  and  _420
REMARK  169  A    between atoms: _423  and  _425
REMARK  170  A    between atoms: _425  and  _426
REMARK  171  A    between atoms: _425  and  _428
REMARK  172  A    between atoms: _428  and  _429
REMARK  173  A    between atoms: _432  and  _434
REMARK  174  A    between atoms: _434  and  _435
REMARK  175  A    between atoms: _434  and  _437
REMARK  176  A    between atoms: _440  and  _442
REMARK  177  A    between atoms: _442  and  _443
REMARK  178  A    between atoms: _445  and  _447
REMARK  179  A    between atoms: _447  and  _448
REMARK  180  A    between atoms: _447  and  _450
REMARK  181  A    between atoms: _454  and  _455
REMARK  182  A    between atoms: _460  and  _462
REMARK  183  A    between atoms: _462  and  _463
REMARK  184  A    between atoms: _462  and  _465
REMARK  185  A    between atoms: _465  and  _466
REMARK  186  A    between atoms: _469  and  _471
REMARK  187  A    between atoms: _471  and  _472
REMARK  188  A    between atoms: _471  and  _474
REMARK  189  A    between atoms: _477  and  _479
REMARK  190  A    between atoms: _479  and  _480
REMARK  191  A    between atoms: _479  and  _482
REMARK  192  A    between atoms: _482  and  _483
REMARK  193  A    between atoms: _483  and  _484
REMARK  194  A    between atoms: _484  and  _485
REMARK  195  A    between atoms: _494  and  _496
REMARK  196  A    between atoms: _496  and  _497
REMARK  197  A    between atoms: _496  and  _499
REMARK  198  A    between atoms: _499  and  _500
REMARK  199  A    between atoms: _500  and  _501
REMARK  200  A    between atoms: _504  and  _506
REMARK  201  A    between atoms: _506  and  _507
REMARK  202  A    between atoms: _506  and  _509
REMARK  203  A    between atoms: _509  and  _510
REMARK  204  A    between atoms: _513  and  _515
REMARK  205  A    between atoms: _515  and  _516
REMARK  206  A    between atoms: _519  and  _521
REMARK  207  A    between atoms: _521  and  _522
REMARK  208  A    between atoms: _521  and  _524
REMARK  209  A    between atoms: _524  and  _525
REMARK  210  A    between atoms: _525  and  _526
REMARK  211  A    between atoms: _528  and  _530
REMARK  212  A    between atoms: _530  and  _531
REMARK  213  A    between atoms: _530  and  _533
REMARK  214  A    between atoms: _533  and  _534
REMARK  215  A    between atoms: _536  and  _538
REMARK  216  A    between atoms: _538  and  _539
REMARK  217  A    between atoms: _538  and  _541
REMARK  218  A    between atoms: _541  and  _542
REMARK  219  A    between atoms: _544  and  _546
REMARK  220  A    between atoms: _546  and  _547
REMARK  221  A    between atoms: _546  and  _549
REMARK  222  A    between atoms: _549  and  _550
REMARK  223  A    between atoms: _550  and  _551
REMARK  224  A    between atoms: _551  and  _552
REMARK  225  A    between atoms: _561  and  _563
REMARK  226  A    between atoms: _563  and  _564
REMARK  227  A    between atoms: _563  and  _566
REMARK  228  A    between atoms: _566  and  _567
REMARK  229  A    between atoms: _572  and  _574
REMARK  230  A    between atoms: _574  and  _575
REMARK  231  A    between atoms: _574  and  _577
REMARK  232  A    between atoms: _577  and  _578
REMARK  233  A    between atoms: _581  and  _583
REMARK  234  A    between atoms: _583  and  _584
REMARK  235  A    between atoms: _583  and  _586
REMARK  236  A    between atoms: _586  and  _587
REMARK                            x       y       z     vdW  Elec       q    Type
REMARK                         _______ _______ _______ _____ _____    ______ ____
ROOT
ATOM      1  O   HOH     1      18.979  13.061  -0.693  0.00  0.00    +0.000 OA
ENDROOT
TORSDOF 0
REMARK  Name = ../refined-set-2016/3coy/3coy_pocket.pdb
REMARK  236 active torsions:
REMARK  status: ('A' for Active; 'I' for Inactive)
REMARK    1  A    between atoms: _1  and  _3
REMARK    2  A    between atoms: _3  and  _4
REMARK    3  A    between atoms: _3  and  _6
REMARK    4  A    between atoms: _10  and  _11
REMARK    5  A    between atoms: _16  and  _18
REMARK    6  A    between atoms: _18  and  _19
REMARK    7  A    between atoms: _18  and  _21
REMARK    8  A    between atoms: _21  and  _22
REMARK    9  A    between atoms: _25  and  _27
REMARK   10  A    between atoms: _27  and  _28
REMARK   11  A    between atoms: _27  and  _30
REMARK   12  A    between atoms: _30  and  _31
REMARK   13  A    between atoms: _31  and  _32
REMARK   14  A    between atoms: _34  and  _36
REMARK   15  A    between atoms: _36  and  _37
REMARK   16  A    between atoms: _39  and  _41
REMARK   17  A    between atoms: _41  and  _42
REMARK   18  A    between atoms: _45  and  _47
REMARK   19  A    between atoms: _47  and  _48
REMARK   20  A    between atoms: _47  and  _50
REMARK   21  A    between atoms: _50  and  _51
REMARK   22  A    between atoms: _54  and  _56
REMARK   23  A    between atoms: _56  and  _57
REMARK   24  A    between atoms: _56  and  _59
REMARK   25  A    between atoms: _59  and  _60
REMARK   26  A    between atoms: _65  and  _67
REMARK   27  A    between atoms: _67  and  _68
REMARK   28  A    between atoms: _67  and  _70
REMARK   29  A    between atoms: _70  and  _71
REMARK   30  A    between atoms: _71  and  _72
REMARK   31  A    between atoms: _75  and  _77
REMARK   32  A    between atoms: _77  and  _78
REMARK   33  A    between atoms: _80  and  _82
REMARK   34  A    between atoms: _82  and  _83
REMARK   35  A    between atoms: _82  and  _85
REMARK   36  A    between atoms: _85  and  _86
REMARK   37  A    between atoms: _91  and  _93
REMARK   38  A    between atoms: _93  and  _94
REMARK   39  A    between atoms: _93  and  _96
REMARK   40  A    between atoms: _96  and  _97
REMARK   41  A    between atoms: _100  and  _102
REMARK   42  A    between atoms: _102  and  _103
REMARK   43  A    between atoms: _106  and  _108
REMARK   44  A    between atoms: _108  and  _109
REMARK   45  A    between atoms: _108  and  _111
REMARK   46  A    between atoms: _111  and  _112
REMARK   47  A    between atoms: _115  and  _117
REMARK   48  A    between atoms: _117  and  _118
REMARK   49  A    between atoms: _117  and  _120
REMARK   50  A    between atoms: _123  and  _125
REMARK   51  A    between atoms: _125  and  _126
REMARK   52  A    between atoms: _125  and  _128
REMARK   53  A    between atoms: _131  and  _133
REMARK   54  A    between atoms: _133  and  _134
REMARK   55  A    between atoms: _133  and  _136
REMARK   56  A    between atoms: _136  and  _137
REMARK   57  A    between atoms: _139  and  _141
REMARK   58  A    between atoms: _141  and  _142
REMARK   59  A    between atoms: _141  and  _144
REMARK   60  A    between atoms: _144  and  _145
REMARK   61  A    between atoms: _148  and  _150
REMARK   62  A    between atoms: _150  and  _151
REMARK   63  A    between atoms: _150  and  _153
REMARK   64  A    between atoms: _153  and  _154
REMARK   65  A    between atoms: _160  and  _162
REMARK   66  A    between atoms: _162  and  _163
REMARK   67  A    between atoms: _162  and  _165
REMARK   68  A    between atoms: _168  and  _170
REMARK   69  A    between atoms: _170  and  _171
REMARK   70  A    between atoms: _170  and  _173
REMARK   71  A    between atoms: _173  and  _174
REMARK   72  A    between atoms: _179  and  _181
REMARK   73  A    between atoms: _181  and  _182
REMARK   74  A    between atoms: _181  and  _184
REMARK   75  A    between atoms: _184  and  _185
REMARK   76  A    between atoms: _185  and  _186
REMARK   77  A    between atoms: _191  and  _193
REMARK   78  A    between atoms: _193  and  _194
REMARK   79  A    between atoms: _193  and  _196
REMARK   80  A    between atoms: _196  and  _197
REMARK   81  A    between atoms: _203  and  _205
REMARK   82  A    between atoms: _205  and  _206
REMARK   83  A    between atoms: _205  and  _208
REMARK   84  A    between atoms: _208  and  _209
REMARK   85  A    between atoms: _214  and  _215
REMARK   86  A    between atoms: _217  and  _219
REMARK   87  A    between atoms: _219  and  _220
REMARK   88  A    between atoms: _219  and  _222
REMARK   89  A    between atoms: _222  and  _223
REMARK   90  A    between atoms: _228  and  _229
REMARK   91  A    between atoms: _231  and  _233
REMARK   92  A    between atoms: _233  and  _234
REMARK   93  A    between atoms: _233  and  _236
REMARK   94  A    between atoms: _236  and  _237
REMARK   95  A    between atoms: _242  and  _244
REMARK   96  A    between atoms: _244  and  _245
REMARK   97  A    between atoms: _244  and  _247
REMARK   98  A    between atoms: _247  and  _248
REMARK   99  A    between atoms: _254  and  _256
REMARK  100  A    between atoms: _256  and  _257
REMARK  101  A    between atoms: _259  and  _261
REMARK  102  A    between atoms: _261  and  _262
REMARK  103  A    between atoms: _261  and  _264
REMARK  104  A    between atoms: _267  and  _269
REMARK  105  A    between atoms: _269  and  _270
REMARK  106  A    between atoms: _269  and  _272
REMARK  107  A    between atoms: _272  and  _273
REMARK  108  A    between atoms: _276  and  _278
REMARK  109  A    between atoms: _278  and  _279
REMARK  110  A    between atoms: _278  and  _281
REMARK  111  A    between atoms: _281  and  _282
REMARK  112  A    between atoms: _285  and  _287
REMARK  113  A    between atoms: _287  and  _288
REMARK  114  A    between atoms: _287  and  _290
REMARK  115  A    between atoms: _293  and  _295
REMARK  116  A    between atoms: _295  and  _296
REMARK  117  A    between atoms: _295  and  _298
REMARK  118  A    between atoms: _301  and  _303
REMARK  119  A    between atoms: _303  and  _304
REMARK  120  A    between atoms: _303  and  _306
REMARK  121  A    between atoms: _306  and  _307
REMARK  122  A    between atoms: _310  and  _312
REMARK  123  A    between atoms: _312  and  _313
REMARK  124  A    between atoms: _312  and  _315
REMARK  125  A    between atoms: _315  and  _316
REMARK  126  A    between atoms: _319  and  _321
REMARK  127  A    between atoms: _321  and  _322
REMARK  128  A    between atoms: _321  and  _324
REMARK  129  A    between atoms: _327  and  _329
REMARK  130  A    between atoms: _329  and  _330
REMARK  131  A    between atoms: _329  and  _332
REMARK  132  A    between atoms: _332  and  _333
REMARK  133  A    between atoms: _339  and  _341
REMARK  134  A    between atoms: _341  and  _342
REMARK  135  A    between atoms: _341  and  _344
REMARK  136  A    between atoms: _344  and  _345
REMARK  137  A    between atoms: _351  and  _353
REMARK  138  A    between atoms: _353  and  _354
REMARK  139  A    between atoms: _356  and  _358
REMARK  140  A    between atoms: _358  and  _359
REMARK  141  A    between atoms: _358  and  _361
REMARK  142  A    between atoms: _361  and  _362
REMARK  143  A    between atoms: _362  and  _363
REMARK  144  A    between atoms: _366  and  _368
REMARK  145  A    between atoms: _368  and  _369
REMARK  146  A    between atoms: _368  and  _371
REMARK  147  A    between atoms: _371  and  _372
REMARK  148  A    between atoms: _372  and  _373
REMARK  149  A    between atoms: _373  and  _374
REMARK  150  A    between atoms: _374  and  _375
REMARK  151  A    between atoms: _379  and  _381
REMARK  152  A    between atoms: _381  and  _382
REMARK  153  A    between atoms: _381  and  _384
REMARK  154  A    between atoms: _384  and  _385
REMARK  155  A    between atoms: _388  and  _390
REMARK  156  A    between atoms: _390  and  _391
REMARK  157  A    between atoms: _390  and  _393
REMARK  158  A    between atoms: _393  and  _394
REMARK  159  A    between atoms: _399  and  _400
REMARK  160  A    between atoms: _402  and  _404
REMARK  161  A    between atoms: _404  and  _405
REMARK  162  A    between atoms: _404  and  _407
REMARK  163  A    between atoms: _407  and  _408
REMARK  164  A    between atoms: _408  and  _409
REMARK  165  A    between atoms: _414  and  _416
REMARK  166  A    between atoms: _416  and  _417
REMARK  167  A    between atoms: _416  and  _419
REMARK  168  A    between atoms: _419  and  _420
REMARK  169  A    between atoms: _423  and  _425
REMARK  170  A    between atoms: _425  and  _426
REMARK  171  A    between atoms: _425  and  _428
REMARK  172  A    between atoms: _428  and  _429
REMARK  173  A    between atoms: _432  and  _434
REMARK  174  A    between atoms: _434  and  _435
REMARK  175  A    between atoms: _434  and  _437
REMARK  176  A    between atoms: _440  and  _442
REMARK  177  A    between atoms: _442  and  _443
REMARK  178  A    between atoms: _445  and  _447
REMARK  179  A    between atoms: _447  and  _448
REMARK  180  A    between atoms: _447  and  _450
REMARK  181  A    between atoms: _454  and  _455
REMARK  182  A    between atoms: _460  and  _462
REMARK  183  A    between atoms: _462  and  _463
REMARK  184  A    between atoms: _462  and  _465
REMARK  185  A    between atoms: _465  and  _466
REMARK  186  A    between atoms: _469  and  _471
REMARK  187  A    between atoms: _471  and  _472
REMARK  188  A    between atoms: _471  and  _474
REMARK  189  A    between atoms: _477  and  _479
REMARK  190  A    between atoms: _479  and  _480
REMARK  191  A    between atoms: _479  and  _482
REMARK  192  A    between atoms: _482  and  _483
REMARK  193  A    between atoms: _483  and  _484
REMARK  194  A    between atoms: _484  and  _485
REMARK  195  A    between atoms: _494  and  _496
REMARK  196  A    between atoms: _496  and  _497
REMARK  197  A    between atoms: _496  and  _499
REMARK  198  A    between atoms: _499  and  _500
REMARK  199  A    between atoms: _500  and  _501
REMARK  200  A    between atoms: _504  and  _506
REMARK  201  A    between atoms: _506  and  _507
REMARK  202  A    between atoms: _506  and  _509
REMARK  203  A    between atoms: _509  and  _510
REMARK  204  A    between atoms: _513  and  _515
REMARK  205  A    between atoms: _515  and  _516
REMARK  206  A    between atoms: _519  and  _521
REMARK  207  A    between atoms: _521  and  _522
REMARK  208  A    between atoms: _521  and  _524
REMARK  209  A    between atoms: _524  and  _525
REMARK  210  A    between atoms: _525  and  _526
REMARK  211  A    between atoms: _528  and  _530
REMARK  212  A    between atoms: _530  and  _531
REMARK  213  A    between atoms: _530  and  _533
REMARK  214  A    between atoms: _533  and  _534
REMARK  215  A    between atoms: _536  and  _538
REMARK  216  A    between atoms: _538  and  _539
REMARK  217  A    between atoms: _538  and  _541
REMARK  218  A    between atoms: _541  and  _542
REMARK  219  A    between atoms: _544  and  _546
REMARK  220  A    between atoms: _546  and  _547
REMARK  221  A    between atoms: _546  and  _549
REMARK  222  A    between atoms: _549  and  _550
REMARK  223  A    between atoms: _550  and  _551
REMARK  224  A    between atoms: _551  and  _552
REMARK  225  A    between atoms: _561  and  _563
REMARK  226  A    between atoms: _563  and  _564
REMARK  227  A    between atoms: _563  and  _566
REMARK  228  A    between atoms: _566  and  _567
REMARK  229  A    between atoms: _572  and  _574
REMARK  230  A    between atoms: _574  and  _575
REMARK  231  A    between atoms: _574  and  _577
REMARK  232  A    between atoms: _577  and  _578
REMARK  233  A    between atoms: _581  and  _583
REMARK  234  A    between atoms: _583  and  _584
REMARK  235  A    between atoms: _583  and  _586
REMARK  236  A    between atoms: _586  and  _587
REMARK                            x       y       z     vdW  Elec       q    Type
REMARK                         _______ _______ _______ _____ _____    ______ ____
ROOT
ATOM      1  O   HOH     1      18.044   9.691   0.543  0.00  0.00    +0.000 OA
ENDROOT
TORSDOF 0
REMARK  Name = ../refined-set-2016/3coy/3coy_pocket.pdb
REMARK  236 active torsions:
REMARK  status: ('A' for Active; 'I' for Inactive)
REMARK    1  A    between atoms: _1  and  _3
REMARK    2  A    between atoms: _3  and  _4
REMARK    3  A    between atoms: _3  and  _6
REMARK    4  A    between atoms: _10  and  _11
REMARK    5  A    between atoms: _16  and  _18
REMARK    6  A    between atoms: _18  and  _19
REMARK    7  A    between atoms: _18  and  _21
REMARK    8  A    between atoms: _21  and  _22
REMARK    9  A    between atoms: _25  and  _27
REMARK   10  A    between atoms: _27  and  _28
REMARK   11  A    between atoms: _27  and  _30
REMARK   12  A    between atoms: _30  and  _31
REMARK   13  A    between atoms: _31  and  _32
REMARK   14  A    between atoms: _34  and  _36
REMARK   15  A    between atoms: _36  and  _37
REMARK   16  A    between atoms: _39  and  _41
REMARK   17  A    between atoms: _41  and  _42
REMARK   18  A    between atoms: _45  and  _47
REMARK   19  A    between atoms: _47  and  _48
REMARK   20  A    between atoms: _47  and  _50
REMARK   21  A    between atoms: _50  and  _51
REMARK   22  A    between atoms: _54  and  _56
REMARK   23  A    between atoms: _56  and  _57
REMARK   24  A    between atoms: _56  and  _59
REMARK   25  A    between atoms: _59  and  _60
REMARK   26  A    between atoms: _65  and  _67
REMARK   27  A    between atoms: _67  and  _68
REMARK   28  A    between atoms: _67  and  _70
REMARK   29  A    between atoms: _70  and  _71
REMARK   30  A    between atoms: _71  and  _72
REMARK   31  A    between atoms: _75  and  _77
REMARK   32  A    between atoms: _77  and  _78
REMARK   33  A    between atoms: _80  and  _82
REMARK   34  A    between atoms: _82  and  _83
REMARK   35  A    between atoms: _82  and  _85
REMARK   36  A    between atoms: _85  and  _86
REMARK   37  A    between atoms: _91  and  _93
REMARK   38  A    between atoms: _93  and  _94
REMARK   39  A    between atoms: _93  and  _96
REMARK   40  A    between atoms: _96  and  _97
REMARK   41  A    between atoms: _100  and  _102
REMARK   42  A    between atoms: _102  and  _103
REMARK   43  A    between atoms: _106  and  _108
REMARK   44  A    between atoms: _108  and  _109
REMARK   45  A    between atoms: _108  and  _111
REMARK   46  A    between atoms: _111  and  _112
REMARK   47  A    between atoms: _115  and  _117
REMARK   48  A    between atoms: _117  and  _118
REMARK   49  A    between atoms: _117  and  _120
REMARK   50  A    between atoms: _123  and  _125
REMARK   51  A    between atoms: _125  and  _126
REMARK   52  A    between atoms: _125  and  _128
REMARK   53  A    between atoms: _131  and  _133
REMARK   54  A    between atoms: _133  and  _134
REMARK   55  A    between atoms: _133  and  _136
REMARK   56  A    between atoms: _136  and  _137
REMARK   57  A    between atoms: _139  and  _141
REMARK   58  A    between atoms: _141  and  _142
REMARK   59  A    between atoms: _141  and  _144
REMARK   60  A    between atoms: _144  and  _145
REMARK   61  A    between atoms: _148  and  _150
REMARK   62  A    between atoms: _150  and  _151
REMARK   63  A    between atoms: _150  and  _153
REMARK   64  A    between atoms: _153  and  _154
REMARK   65  A    between atoms: _160  and  _162
REMARK   66  A    between atoms: _162  and  _163
REMARK   67  A    between atoms: _162  and  _165
REMARK   68  A    between atoms: _168  and  _170
REMARK   69  A    between atoms: _170  and  _171
REMARK   70  A    between atoms: _170  and  _173
REMARK   71  A    between atoms: _173  and  _174
REMARK   72  A    between atoms: _179  and  _181
REMARK   73  A    between atoms: _181  and  _182
REMARK   74  A    between atoms: _181  and  _184
REMARK   75  A    between atoms: _184  and  _185
REMARK   76  A    between atoms: _185  and  _186
REMARK   77  A    between atoms: _191  and  _193
REMARK   78  A    between atoms: _193  and  _194
REMARK   79  A    between atoms: _193  and  _196
REMARK   80  A    between atoms: _196  and  _197
REMARK   81  A    between atoms: _203  and  _205
REMARK   82  A    between atoms: _205  and  _206
REMARK   83  A    between atoms: _205  and  _208
REMARK   84  A    between atoms: _208  and  _209
REMARK   85  A    between atoms: _214  and  _215
REMARK   86  A    between atoms: _217  and  _219
REMARK   87  A    between atoms: _219  and  _220
REMARK   88  A    between atoms: _219  and  _222
REMARK   89  A    between atoms: _222  and  _223
REMARK   90  A    between atoms: _228  and  _229
REMARK   91  A    between atoms: _231  and  _233
REMARK   92  A    between atoms: _233  and  _234
REMARK   93  A    between atoms: _233  and  _236
REMARK   94  A    between atoms: _236  and  _237
REMARK   95  A    between atoms: _242  and  _244
REMARK   96  A    between atoms: _244  and  _245
REMARK   97  A    between atoms: _244  and  _247
REMARK   98  A    between atoms: _247  and  _248
REMARK   99  A    between atoms: _254  and  _256
REMARK  100  A    between atoms: _256  and  _257
REMARK  101  A    between atoms: _259  and  _261
REMARK  102  A    between atoms: _261  and  _262
REMARK  103  A    between atoms: _261  and  _264
REMARK  104  A    between atoms: _267  and  _269
REMARK  105  A    between atoms: _269  and  _270
REMARK  106  A    between atoms: _269  and  _272
REMARK  107  A    between atoms: _272  and  _273
REMARK  108  A    between atoms: _276  and  _278
REMARK  109  A    between atoms: _278  and  _279
REMARK  110  A    between atoms: _278  and  _281
REMARK  111  A    between atoms: _281  and  _282
REMARK  112  A    between atoms: _285  and  _287
REMARK  113  A    between atoms: _287  and  _288
REMARK  114  A    between atoms: _287  and  _290
REMARK  115  A    between atoms: _293  and  _295
REMARK  116  A    between atoms: _295  and  _296
REMARK  117  A    between atoms: _295  and  _298
REMARK  118  A    between atoms: _301  and  _303
REMARK  119  A    between atoms: _303  and  _304
REMARK  120  A    between atoms: _303  and  _306
REMARK  121  A    between atoms: _306  and  _307
REMARK  122  A    between atoms: _310  and  _312
REMARK  123  A    between atoms: _312  and  _313
REMARK  124  A    between atoms: _312  and  _315
REMARK  125  A    between atoms: _315  and  _316
REMARK  126  A    between atoms: _319  and  _321
REMARK  127  A    between atoms: _321  and  _322
REMARK  128  A    between atoms: _321  and  _324
REMARK  129  A    between atoms: _327  and  _329
REMARK  130  A    between atoms: _329  and  _330
REMARK  131  A    between atoms: _329  and  _332
REMARK  132  A    between atoms: _332  and  _333
REMARK  133  A    between atoms: _339  and  _341
REMARK  134  A    between atoms: _341  and  _342
REMARK  135  A    between atoms: _341  and  _344
REMARK  136  A    between atoms: _344  and  _345
REMARK  137  A    between atoms: _351  and  _353
REMARK  138  A    between atoms: _353  and  _354
REMARK  139  A    between atoms: _356  and  _358
REMARK  140  A    between atoms: _358  and  _359
REMARK  141  A    between atoms: _358  and  _361
REMARK  142  A    between atoms: _361  and  _362
REMARK  143  A    between atoms: _362  and  _363
REMARK  144  A    between atoms: _366  and  _368
REMARK  145  A    between atoms: _368  and  _369
REMARK  146  A    between atoms: _368  and  _371
REMARK  147  A    between atoms: _371  and  _372
REMARK  148  A    between atoms: _372  and  _373
REMARK  149  A    between atoms: _373  and  _374
REMARK  150  A    between atoms: _374  and  _375
REMARK  151  A    between atoms: _379  and  _381
REMARK  152  A    between atoms: _381  and  _382
REMARK  153  A    between atoms: _381  and  _384
REMARK  154  A    between atoms: _384  and  _385
REMARK  155  A    between atoms: _388  and  _390
REMARK  156  A    between atoms: _390  and  _391
REMARK  157  A    between atoms: _390  and  _393
REMARK  158  A    between atoms: _393  and  _394
REMARK  159  A    between atoms: _399  and  _400
REMARK  160  A    between atoms: _402  and  _404
REMARK  161  A    between atoms: _404  and  _405
REMARK  162  A    between atoms: _404  and  _407
REMARK  163  A    between atoms: _407  and  _408
REMARK  164  A    between atoms: _408  and  _409
REMARK  165  A    between atoms: _414  and  _416
REMARK  166  A    between atoms: _416  and  _417
REMARK  167  A    between atoms: _416  and  _419
REMARK  168  A    between atoms: _419  and  _420
REMARK  169  A    between atoms: _423  and  _425
REMARK  170  A    between atoms: _425  and  _426
REMARK  171  A    between atoms: _425  and  _428
REMARK  172  A    between atoms: _428  and  _429
REMARK  173  A    between atoms: _432  and  _434
REMARK  174  A    between atoms: _434  and  _435
REMARK  175  A    between atoms: _434  and  _437
REMARK  176  A    between atoms: _440  and  _442
REMARK  177  A    between atoms: _442  and  _443
REMARK  178  A    between atoms: _445  and  _447
REMARK  179  A    between atoms: _447  and  _448
REMARK  180  A    between atoms: _447  and  _450
REMARK  181  A    between atoms: _454  and  _455
REMARK  182  A    between atoms: _460  and  _462
REMARK  183  A    between atoms: _462  and  _463
REMARK  184  A    between atoms: _462  and  _465
REMARK  185  A    between atoms: _465  and  _466
REMARK  186  A    between atoms: _469  and  _471
REMARK  187  A    between atoms: _471  and  _472
REMARK  188  A    between atoms: _471  and  _474
REMARK  189  A    between atoms: _477  and  _479
REMARK  190  A    between atoms: _479  and  _480
REMARK  191  A    between atoms: _479  and  _482
REMARK  192  A    between atoms: _482  and  _483
REMARK  193  A    between atoms: _483  and  _484
REMARK  194  A    between atoms: _484  and  _485
REMARK  195  A    between atoms: _494  and  _496
REMARK  196  A    between atoms: _496  and  _497
REMARK  197  A    between atoms: _496  and  _499
REMARK  198  A    between atoms: _499  and  _500
REMARK  199  A    between atoms: _500  and  _501
REMARK  200  A    between atoms: _504  and  _506
REMARK  201  A    between atoms: _506  and  _507
REMARK  202  A    between atoms: _506  and  _509
REMARK  203  A    between atoms: _509  and  _510
REMARK  204  A    between atoms: _513  and  _515
REMARK  205  A    between atoms: _515  and  _516
REMARK  206  A    between atoms: _519  and  _521
REMARK  207  A    between atoms: _521  and  _522
REMARK  208  A    between atoms: _521  and  _524
REMARK  209  A    between atoms: _524  and  _525
REMARK  210  A    between atoms: _525  and  _526
REMARK  211  A    between atoms: _528  and  _530
REMARK  212  A    between atoms: _530  and  _531
REMARK  213  A    between atoms: _530  and  _533
REMARK  214  A    between atoms: _533  and  _534
REMARK  215  A    between atoms: _536  and  _538
REMARK  216  A    between atoms: _538  and  _539
REMARK  217  A    between atoms: _538  and  _541
REMARK  218  A    between atoms: _541  and  _542
REMARK  219  A    between atoms: _544  and  _546
REMARK  220  A    between atoms: _546  and  _547
REMARK  221  A    between atoms: _546  and  _549
REMARK  222  A    between atoms: _549  and  _550
REMARK  223  A    between atoms: _550  and  _551
REMARK  224  A    between atoms: _551  and  _552
REMARK  225  A    between atoms: _561  and  _563
REMARK  226  A    between atoms: _563  and  _564
REMARK  227  A    between atoms: _563  and  _566
REMARK  228  A    between atoms: _566  and  _567
REMARK  229  A    between atoms: _572  and  _574
REMARK  230  A    between atoms: _574  and  _575
REMARK  231  A    between atoms: _574  and  _577
REMARK  232  A    between atoms: _577  and  _578
REMARK  233  A    between atoms: _581  and  _583
REMARK  234  A    between atoms: _583  and  _584
REMARK  235  A    between atoms: _583  and  _586
REMARK  236  A    between atoms: _586  and  _587
REMARK                            x       y       z     vdW  Elec       q    Type
REMARK                         _______ _______ _______ _____ _____    ______ ____
ROOT
ATOM      1  O   HOH     1      15.793   3.129  -7.550  0.00  0.00    +0.000 OA
ENDROOT
TORSDOF 0
REMARK  Name = ../refined-set-2016/3coy/3coy_pocket.pdb
REMARK  236 active torsions:
REMARK  status: ('A' for Active; 'I' for Inactive)
REMARK    1  A    between atoms: _1  and  _3
REMARK    2  A    between atoms: _3  and  _4
REMARK    3  A    between atoms: _3  and  _6
REMARK    4  A    between atoms: _10  and  _11
REMARK    5  A    between atoms: _16  and  _18
REMARK    6  A    between atoms: _18  and  _19
REMARK    7  A    between atoms: _18  and  _21
REMARK    8  A    between atoms: _21  and  _22
REMARK    9  A    between atoms: _25  and  _27
REMARK   10  A    between atoms: _27  and  _28
REMARK   11  A    between atoms: _27  and  _30
REMARK   12  A    between atoms: _30  and  _31
REMARK   13  A    between atoms: _31  and  _32
REMARK   14  A    between atoms: _34  and  _36
REMARK   15  A    between atoms: _36  and  _37
REMARK   16  A    between atoms: _39  and  _41
REMARK   17  A    between atoms: _41  and  _42
REMARK   18  A    between atoms: _45  and  _47
REMARK   19  A    between atoms: _47  and  _48
REMARK   20  A    between atoms: _47  and  _50
REMARK   21  A    between atoms: _50  and  _51
REMARK   22  A    between atoms: _54  and  _56
REMARK   23  A    between atoms: _56  and  _57
REMARK   24  A    between atoms: _56  and  _59
REMARK   25  A    between atoms: _59  and  _60
REMARK   26  A    between atoms: _65  and  _67
REMARK   27  A    between atoms: _67  and  _68
REMARK   28  A    between atoms: _67  and  _70
REMARK   29  A    between atoms: _70  and  _71
REMARK   30  A    between atoms: _71  and  _72
REMARK   31  A    between atoms: _75  and  _77
REMARK   32  A    between atoms: _77  and  _78
REMARK   33  A    between atoms: _80  and  _82
REMARK   34  A    between atoms: _82  and  _83
REMARK   35  A    between atoms: _82  and  _85
REMARK   36  A    between atoms: _85  and  _86
REMARK   37  A    between atoms: _91  and  _93
REMARK   38  A    between atoms: _93  and  _94
REMARK   39  A    between atoms: _93  and  _96
REMARK   40  A    between atoms: _96  and  _97
REMARK   41  A    between atoms: _100  and  _102
REMARK   42  A    between atoms: _102  and  _103
REMARK   43  A    between atoms: _106  and  _108
REMARK   44  A    between atoms: _108  and  _109
REMARK   45  A    between atoms: _108  and  _111
REMARK   46  A    between atoms: _111  and  _112
REMARK   47  A    between atoms: _115  and  _117
REMARK   48  A    between atoms: _117  and  _118
REMARK   49  A    between atoms: _117  and  _120
REMARK   50  A    between atoms: _123  and  _125
REMARK   51  A    between atoms: _125  and  _126
REMARK   52  A    between atoms: _125  and  _128
REMARK   53  A    between atoms: _131  and  _133
REMARK   54  A    between atoms: _133  and  _134
REMARK   55  A    between atoms: _133  and  _136
REMARK   56  A    between atoms: _136  and  _137
REMARK   57  A    between atoms: _139  and  _141
REMARK   58  A    between atoms: _141  and  _142
REMARK   59  A    between atoms: _141  and  _144
REMARK   60  A    between atoms: _144  and  _145
REMARK   61  A    between atoms: _148  and  _150
REMARK   62  A    between atoms: _150  and  _151
REMARK   63  A    between atoms: _150  and  _153
REMARK   64  A    between atoms: _153  and  _154
REMARK   65  A    between atoms: _160  and  _162
REMARK   66  A    between atoms: _162  and  _163
REMARK   67  A    between atoms: _162  and  _165
REMARK   68  A    between atoms: _168  and  _170
REMARK   69  A    between atoms: _170  and  _171
REMARK   70  A    between atoms: _170  and  _173
REMARK   71  A    between atoms: _173  and  _174
REMARK   72  A    between atoms: _179  and  _181
REMARK   73  A    between atoms: _181  and  _182
REMARK   74  A    between atoms: _181  and  _184
REMARK   75  A    between atoms: _184  and  _185
REMARK   76  A    between atoms: _185  and  _186
REMARK   77  A    between atoms: _191  and  _193
REMARK   78  A    between atoms: _193  and  _194
REMARK   79  A    between atoms: _193  and  _196
REMARK   80  A    between atoms: _196  and  _197
REMARK   81  A    between atoms: _203  and  _205
REMARK   82  A    between atoms: _205  and  _206
REMARK   83  A    between atoms: _205  and  _208
REMARK   84  A    between atoms: _208  and  _209
REMARK   85  A    between atoms: _214  and  _215
REMARK   86  A    between atoms: _217  and  _219
REMARK   87  A    between atoms: _219  and  _220
REMARK   88  A    between atoms: _219  and  _222
REMARK   89  A    between atoms: _222  and  _223
REMARK   90  A    between atoms: _228  and  _229
REMARK   91  A    between atoms: _231  and  _233
REMARK   92  A    between atoms: _233  and  _234
REMARK   93  A    between atoms: _233  and  _236
REMARK   94  A    between atoms: _236  and  _237
REMARK   95  A    between atoms: _242  and  _244
REMARK   96  A    between atoms: _244  and  _245
REMARK   97  A    between atoms: _244  and  _247
REMARK   98  A    between atoms: _247  and  _248
REMARK   99  A    between atoms: _254  and  _256
REMARK  100  A    between atoms: _256  and  _257
REMARK  101  A    between atoms: _259  and  _261
REMARK  102  A    between atoms: _261  and  _262
REMARK  103  A    between atoms: _261  and  _264
REMARK  104  A    between atoms: _267  and  _269
REMARK  105  A    between atoms: _269  and  _270
REMARK  106  A    between atoms: _269  and  _272
REMARK  107  A    between atoms: _272  and  _273
REMARK  108  A    between atoms: _276  and  _278
REMARK  109  A    between atoms: _278  and  _279
REMARK  110  A    between atoms: _278  and  _281
REMARK  111  A    between atoms: _281  and  _282
REMARK  112  A    between atoms: _285  and  _287
REMARK  113  A    between atoms: _287  and  _288
REMARK  114  A    between atoms: _287  and  _290
REMARK  115  A    between atoms: _293  and  _295
REMARK  116  A    between atoms: _295  and  _296
REMARK  117  A    between atoms: _295  and  _298
REMARK  118  A    between atoms: _301  and  _303
REMARK  119  A    between atoms: _303  and  _304
REMARK  120  A    between atoms: _303  and  _306
REMARK  121  A    between atoms: _306  and  _307
REMARK  122  A    between atoms: _310  and  _312
REMARK  123  A    between atoms: _312  and  _313
REMARK  124  A    between atoms: _312  and  _315
REMARK  125  A    between atoms: _315  and  _316
REMARK  126  A    between atoms: _319  and  _321
REMARK  127  A    between atoms: _321  and  _322
REMARK  128  A    between atoms: _321  and  _324
REMARK  129  A    between atoms: _327  and  _329
REMARK  130  A    between atoms: _329  and  _330
REMARK  131  A    between atoms: _329  and  _332
REMARK  132  A    between atoms: _332  and  _333
REMARK  133  A    between atoms: _339  and  _341
REMARK  134  A    between atoms: _341  and  _342
REMARK  135  A    between atoms: _341  and  _344
REMARK  136  A    between atoms: _344  and  _345
REMARK  137  A    between atoms: _351  and  _353
REMARK  138  A    between atoms: _353  and  _354
REMARK  139  A    between atoms: _356  and  _358
REMARK  140  A    between atoms: _358  and  _359
REMARK  141  A    between atoms: _358  and  _361
REMARK  142  A    between atoms: _361  and  _362
REMARK  143  A    between atoms: _362  and  _363
REMARK  144  A    between atoms: _366  and  _368
REMARK  145  A    between atoms: _368  and  _369
REMARK  146  A    between atoms: _368  and  _371
REMARK  147  A    between atoms: _371  and  _372
REMARK  148  A    between atoms: _372  and  _373
REMARK  149  A    between atoms: _373  and  _374
REMARK  150  A    between atoms: _374  and  _375
REMARK  151  A    between atoms: _379  and  _381
REMARK  152  A    between atoms: _381  and  _382
REMARK  153  A    between atoms: _381  and  _384
REMARK  154  A    between atoms: _384  and  _385
REMARK  155  A    between atoms: _388  and  _390
REMARK  156  A    between atoms: _390  and  _391
REMARK  157  A    between atoms: _390  and  _393
REMARK  158  A    between atoms: _393  and  _394
REMARK  159  A    between atoms: _399  and  _400
REMARK  160  A    between atoms: _402  and  _404
REMARK  161  A    between atoms: _404  and  _405
REMARK  162  A    between atoms: _404  and  _407
REMARK  163  A    between atoms: _407  and  _408
REMARK  164  A    between atoms: _408  and  _409
REMARK  165  A    between atoms: _414  and  _416
REMARK  166  A    between atoms: _416  and  _417
REMARK  167  A    between atoms: _416  and  _419
REMARK  168  A    between atoms: _419  and  _420
REMARK  169  A    between atoms: _423  and  _425
REMARK  170  A    between atoms: _425  and  _426
REMARK  171  A    between atoms: _425  and  _428
REMARK  172  A    between atoms: _428  and  _429
REMARK  173  A    between atoms: _432  and  _434
REMARK  174  A    between atoms: _434  and  _435
REMARK  175  A    between atoms: _434  and  _437
REMARK  176  A    between atoms: _440  and  _442
REMARK  177  A    between atoms: _442  and  _443
REMARK  178  A    between atoms: _445  and  _447
REMARK  179  A    between atoms: _447  and  _448
REMARK  180  A    between atoms: _447  and  _450
REMARK  181  A    between atoms: _454  and  _455
REMARK  182  A    between atoms: _460  and  _462
REMARK  183  A    between atoms: _462  and  _463
REMARK  184  A    between atoms: _462  and  _465
REMARK  185  A    between atoms: _465  and  _466
REMARK  186  A    between atoms: _469  and  _471
REMARK  187  A    between atoms: _471  and  _472
REMARK  188  A    between atoms: _471  and  _474
REMARK  189  A    between atoms: _477  and  _479
REMARK  190  A    between atoms: _479  and  _480
REMARK  191  A    between atoms: _479  and  _482
REMARK  192  A    between atoms: _482  and  _483
REMARK  193  A    between atoms: _483  and  _484
REMARK  194  A    between atoms: _484  and  _485
REMARK  195  A    between atoms: _494  and  _496
REMARK  196  A    between atoms: _496  and  _497
REMARK  197  A    between atoms: _496  and  _499
REMARK  198  A    between atoms: _499  and  _500
REMARK  199  A    between atoms: _500  and  _501
REMARK  200  A    between atoms: _504  and  _506
REMARK  201  A    between atoms: _506  and  _507
REMARK  202  A    between atoms: _506  and  _509
REMARK  203  A    between atoms: _509  and  _510
REMARK  204  A    between atoms: _513  and  _515
REMARK  205  A    between atoms: _515  and  _516
REMARK  206  A    between atoms: _519  and  _521
REMARK  207  A    between atoms: _521  and  _522
REMARK  208  A    between atoms: _521  and  _524
REMARK  209  A    between atoms: _524  and  _525
REMARK  210  A    between atoms: _525  and  _526
REMARK  211  A    between atoms: _528  and  _530
REMARK  212  A    between atoms: _530  and  _531
REMARK  213  A    between atoms: _530  and  _533
REMARK  214  A    between atoms: _533  and  _534
REMARK  215  A    between atoms: _536  and  _538
REMARK  216  A    between atoms: _538  and  _539
REMARK  217  A    between atoms: _538  and  _541
REMARK  218  A    between atoms: _541  and  _542
REMARK  219  A    between atoms: _544  and  _546
REMARK  220  A    between atoms: _546  and  _547
REMARK  221  A    between atoms: _546  and  _549
REMARK  222  A    between atoms: _549  and  _550
REMARK  223  A    between atoms: _550  and  _551
REMARK  224  A    between atoms: _551  and  _552
REMARK  225  A    between atoms: _561  and  _563
REMARK  226  A    between atoms: _563  and  _564
REMARK  227  A    between atoms: _563  and  _566
REMARK  228  A    between atoms: _566  and  _567
REMARK  229  A    between atoms: _572  and  _574
REMARK  230  A    between atoms: _574  and  _575
REMARK  231  A    between atoms: _574  and  _577
REMARK  232  A    between atoms: _577  and  _578
REMARK  233  A    between atoms: _581  and  _583
REMARK  234  A    between atoms: _583  and  _584
REMARK  235  A    between atoms: _583  and  _586
REMARK  236  A    between atoms: _586  and  _587
REMARK                            x       y       z     vdW  Elec       q    Type
REMARK                         _______ _______ _______ _____ _____    ______ ____
ROOT
ATOM      1  O   HOH     1      18.111   4.918  -6.919  0.00  0.00    +0.000 OA
ENDROOT
TORSDOF 0
REMARK  Name = ../refined-set-2016/3coy/3coy_pocket.pdb
REMARK  236 active torsions:
REMARK  status: ('A' for Active; 'I' for Inactive)
REMARK    1  A    between atoms: _1  and  _3
REMARK    2  A    between atoms: _3  and  _4
REMARK    3  A    between atoms: _3  and  _6
REMARK    4  A    between atoms: _10  and  _11
REMARK    5  A    between atoms: _16  and  _18
REMARK    6  A    between atoms: _18  and  _19
REMARK    7  A    between atoms: _18  and  _21
REMARK    8  A    between atoms: _21  and  _22
REMARK    9  A    between atoms: _25  and  _27
REMARK   10  A    between atoms: _27  and  _28
REMARK   11  A    between atoms: _27  and  _30
REMARK   12  A    between atoms: _30  and  _31
REMARK   13  A    between atoms: _31  and  _32
REMARK   14  A    between atoms: _34  and  _36
REMARK   15  A    between atoms: _36  and  _37
REMARK   16  A    between atoms: _39  and  _41
REMARK   17  A    between atoms: _41  and  _42
REMARK   18  A    between atoms: _45  and  _47
REMARK   19  A    between atoms: _47  and  _48
REMARK   20  A    between atoms: _47  and  _50
REMARK   21  A    between atoms: _50  and  _51
REMARK   22  A    between atoms: _54  and  _56
REMARK   23  A    between atoms: _56  and  _57
REMARK   24  A    between atoms: _56  and  _59
REMARK   25  A    between atoms: _59  and  _60
REMARK   26  A    between atoms: _65  and  _67
REMARK   27  A    between atoms: _67  and  _68
REMARK   28  A    between atoms: _67  and  _70
REMARK   29  A    between atoms: _70  and  _71
REMARK   30  A    between atoms: _71  and  _72
REMARK   31  A    between atoms: _75  and  _77
REMARK   32  A    between atoms: _77  and  _78
REMARK   33  A    between atoms: _80  and  _82
REMARK   34  A    between atoms: _82  and  _83
REMARK   35  A    between atoms: _82  and  _85
REMARK   36  A    between atoms: _85  and  _86
REMARK   37  A    between atoms: _91  and  _93
REMARK   38  A    between atoms: _93  and  _94
REMARK   39  A    between atoms: _93  and  _96
REMARK   40  A    between atoms: _96  and  _97
REMARK   41  A    between atoms: _100  and  _102
REMARK   42  A    between atoms: _102  and  _103
REMARK   43  A    between atoms: _106  and  _108
REMARK   44  A    between atoms: _108  and  _109
REMARK   45  A    between atoms: _108  and  _111
REMARK   46  A    between atoms: _111  and  _112
REMARK   47  A    between atoms: _115  and  _117
REMARK   48  A    between atoms: _117  and  _118
REMARK   49  A    between atoms: _117  and  _120
REMARK   50  A    between atoms: _123  and  _125
REMARK   51  A    between atoms: _125  and  _126
REMARK   52  A    between atoms: _125  and  _128
REMARK   53  A    between atoms: _131  and  _133
REMARK   54  A    between atoms: _133  and  _134
REMARK   55  A    between atoms: _133  and  _136
REMARK   56  A    between atoms: _136  and  _137
REMARK   57  A    between atoms: _139  and  _141
REMARK   58  A    between atoms: _141  and  _142
REMARK   59  A    between atoms: _141  and  _144
REMARK   60  A    between atoms: _144  and  _145
REMARK   61  A    between atoms: _148  and  _150
REMARK   62  A    between atoms: _150  and  _151
REMARK   63  A    between atoms: _150  and  _153
REMARK   64  A    between atoms: _153  and  _154
REMARK   65  A    between atoms: _160  and  _162
REMARK   66  A    between atoms: _162  and  _163
REMARK   67  A    between atoms: _162  and  _165
REMARK   68  A    between atoms: _168  and  _170
REMARK   69  A    between atoms: _170  and  _171
REMARK   70  A    between atoms: _170  and  _173
REMARK   71  A    between atoms: _173  and  _174
REMARK   72  A    between atoms: _179  and  _181
REMARK   73  A    between atoms: _181  and  _182
REMARK   74  A    between atoms: _181  and  _184
REMARK   75  A    between atoms: _184  and  _185
REMARK   76  A    between atoms: _185  and  _186
REMARK   77  A    between atoms: _191  and  _193
REMARK   78  A    between atoms: _193  and  _194
REMARK   79  A    between atoms: _193  and  _196
REMARK   80  A    between atoms: _196  and  _197
REMARK   81  A    between atoms: _203  and  _205
REMARK   82  A    between atoms: _205  and  _206
REMARK   83  A    between atoms: _205  and  _208
REMARK   84  A    between atoms: _208  and  _209
REMARK   85  A    between atoms: _214  and  _215
REMARK   86  A    between atoms: _217  and  _219
REMARK   87  A    between atoms: _219  and  _220
REMARK   88  A    between atoms: _219  and  _222
REMARK   89  A    between atoms: _222  and  _223
REMARK   90  A    between atoms: _228  and  _229
REMARK   91  A    between atoms: _231  and  _233
REMARK   92  A    between atoms: _233  and  _234
REMARK   93  A    between atoms: _233  and  _236
REMARK   94  A    between atoms: _236  and  _237
REMARK   95  A    between atoms: _242  and  _244
REMARK   96  A    between atoms: _244  and  _245
REMARK   97  A    between atoms: _244  and  _247
REMARK   98  A    between atoms: _247  and  _248
REMARK   99  A    between atoms: _254  and  _256
REMARK  100  A    between atoms: _256  and  _257
REMARK  101  A    between atoms: _259  and  _261
REMARK  102  A    between atoms: _261  and  _262
REMARK  103  A    between atoms: _261  and  _264
REMARK  104  A    between atoms: _267  and  _269
REMARK  105  A    between atoms: _269  and  _270
REMARK  106  A    between atoms: _269  and  _272
REMARK  107  A    between atoms: _272  and  _273
REMARK  108  A    between atoms: _276  and  _278
REMARK  109  A    between atoms: _278  and  _279
REMARK  110  A    between atoms: _278  and  _281
REMARK  111  A    between atoms: _281  and  _282
REMARK  112  A    between atoms: _285  and  _287
REMARK  113  A    between atoms: _287  and  _288
REMARK  114  A    between atoms: _287  and  _290
REMARK  115  A    between atoms: _293  and  _295
REMARK  116  A    between atoms: _295  and  _296
REMARK  117  A    between atoms: _295  and  _298
REMARK  118  A    between atoms: _301  and  _303
REMARK  119  A    between atoms: _303  and  _304
REMARK  120  A    between atoms: _303  and  _306
REMARK  121  A    between atoms: _306  and  _307
REMARK  122  A    between atoms: _310  and  _312
REMARK  123  A    between atoms: _312  and  _313
REMARK  124  A    between atoms: _312  and  _315
REMARK  125  A    between atoms: _315  and  _316
REMARK  126  A    between atoms: _319  and  _321
REMARK  127  A    between atoms: _321  and  _322
REMARK  128  A    between atoms: _321  and  _324
REMARK  129  A    between atoms: _327  and  _329
REMARK  130  A    between atoms: _329  and  _330
REMARK  131  A    between atoms: _329  and  _332
REMARK  132  A    between atoms: _332  and  _333
REMARK  133  A    between atoms: _339  and  _341
REMARK  134  A    between atoms: _341  and  _342
REMARK  135  A    between atoms: _341  and  _344
REMARK  136  A    between atoms: _344  and  _345
REMARK  137  A    between atoms: _351  and  _353
REMARK  138  A    between atoms: _353  and  _354
REMARK  139  A    between atoms: _356  and  _358
REMARK  140  A    between atoms: _358  and  _359
REMARK  141  A    between atoms: _358  and  _361
REMARK  142  A    between atoms: _361  and  _362
REMARK  143  A    between atoms: _362  and  _363
REMARK  144  A    between atoms: _366  and  _368
REMARK  145  A    between atoms: _368  and  _369
REMARK  146  A    between atoms: _368  and  _371
REMARK  147  A    between atoms: _371  and  _372
REMARK  148  A    between atoms: _372  and  _373
REMARK  149  A    between atoms: _373  and  _374
REMARK  150  A    between atoms: _374  and  _375
REMARK  151  A    between atoms: _379  and  _381
REMARK  152  A    between atoms: _381  and  _382
REMARK  153  A    between atoms: _381  and  _384
REMARK  154  A    between atoms: _384  and  _385
REMARK  155  A    between atoms: _388  and  _390
REMARK  156  A    between atoms: _390  and  _391
REMARK  157  A    between atoms: _390  and  _393
REMARK  158  A    between atoms: _393  and  _394
REMARK  159  A    between atoms: _399  and  _400
REMARK  160  A    between atoms: _402  and  _404
REMARK  161  A    between atoms: _404  and  _405
REMARK  162  A    between atoms: _404  and  _407
REMARK  163  A    between atoms: _407  and  _408
REMARK  164  A    between atoms: _408  and  _409
REMARK  165  A    between atoms: _414  and  _416
REMARK  166  A    between atoms: _416  and  _417
REMARK  167  A    between atoms: _416  and  _419
REMARK  168  A    between atoms: _419  and  _420
REMARK  169  A    between atoms: _423  and  _425
REMARK  170  A    between atoms: _425  and  _426
REMARK  171  A    between atoms: _425  and  _428
REMARK  172  A    between atoms: _428  and  _429
REMARK  173  A    between atoms: _432  and  _434
REMARK  174  A    between atoms: _434  and  _435
REMARK  175  A    between atoms: _434  and  _437
REMARK  176  A    between atoms: _440  and  _442
REMARK  177  A    between atoms: _442  and  _443
REMARK  178  A    between atoms: _445  and  _447
REMARK  179  A    between atoms: _447  and  _448
REMARK  180  A    between atoms: _447  and  _450
REMARK  181  A    between atoms: _454  and  _455
REMARK  182  A    between atoms: _460  and  _462
REMARK  183  A    between atoms: _462  and  _463
REMARK  184  A    between atoms: _462  and  _465
REMARK  185  A    between atoms: _465  and  _466
REMARK  186  A    between atoms: _469  and  _471
REMARK  187  A    between atoms: _471  and  _472
REMARK  188  A    between atoms: _471  and  _474
REMARK  189  A    between atoms: _477  and  _479
REMARK  190  A    between atoms: _479  and  _480
REMARK  191  A    between atoms: _479  and  _482
REMARK  192  A    between atoms: _482  and  _483
REMARK  193  A    between atoms: _483  and  _484
REMARK  194  A    between atoms: _484  and  _485
REMARK  195  A    between atoms: _494  and  _496
REMARK  196  A    between atoms: _496  and  _497
REMARK  197  A    between atoms: _496  and  _499
REMARK  198  A    between atoms: _499  and  _500
REMARK  199  A    between atoms: _500  and  _501
REMARK  200  A    between atoms: _504  and  _506
REMARK  201  A    between atoms: _506  and  _507
REMARK  202  A    between atoms: _506  and  _509
REMARK  203  A    between atoms: _509  and  _510
REMARK  204  A    between atoms: _513  and  _515
REMARK  205  A    between atoms: _515  and  _516
REMARK  206  A    between atoms: _519  and  _521
REMARK  207  A    between atoms: _521  and  _522
REMARK  208  A    between atoms: _521  and  _524
REMARK  209  A    between atoms: _524  and  _525
REMARK  210  A    between atoms: _525  and  _526
REMARK  211  A    between atoms: _528  and  _530
REMARK  212  A    between atoms: _530  and  _531
REMARK  213  A    between atoms: _530  and  _533
REMARK  214  A    between atoms: _533  and  _534
REMARK  215  A    between atoms: _536  and  _538
REMARK  216  A    between atoms: _538  and  _539
REMARK  217  A    between atoms: _538  and  _541
REMARK  218  A    between atoms: _541  and  _542
REMARK  219  A    between atoms: _544  and  _546
REMARK  220  A    between atoms: _546  and  _547
REMARK  221  A    between atoms: _546  and  _549
REMARK  222  A    between atoms: _549  and  _550
REMARK  223  A    between atoms: _550  and  _551
REMARK  224  A    between atoms: _551  and  _552
REMARK  225  A    between atoms: _561  and  _563
REMARK  226  A    between atoms: _563  and  _564
REMARK  227  A    between atoms: _563  and  _566
REMARK  228  A    between atoms: _566  and  _567
REMARK  229  A    between atoms: _572  and  _574
REMARK  230  A    between atoms: _574  and  _575
REMARK  231  A    between atoms: _574  and  _577
REMARK  232  A    between atoms: _577  and  _578
REMARK  233  A    between atoms: _581  and  _583
REMARK  234  A    between atoms: _583  and  _584
REMARK  235  A    between atoms: _583  and  _586
REMARK  236  A    between atoms: _586  and  _587
REMARK                            x       y       z     vdW  Elec       q    Type
REMARK                         _______ _______ _______ _____ _____    ______ ____
ROOT
ATOM      1  O   HOH     1      19.214   8.218   4.417  0.00  0.00    +0.000 OA
ENDROOT
TORSDOF 0
