REMARK  Name = ../refined-set-2016/3lbz/3lbz_pocket.pdb
REMARK  124 active torsions:
REMARK  status: ('A' for Active; 'I' for Inactive)
REMARK    1  A    between atoms: _1  and  _3
REMARK    2  A    between atoms: _3  and  _4
REMARK    3  A    between atoms: _3  and  _6
REMARK    4  A    between atoms: _6  and  _7
REMARK    5  A    between atoms: _10  and  _12
REMARK    6  A    between atoms: _12  and  _13
REMARK    7  A    between atoms: _12  and  _15
REMARK    8  A    between atoms: _18  and  _20
REMARK    9  A    between atoms: _20  and  _21
REMARK   10  A    between atoms: _20  and  _23
REMARK   11  A    between atoms: _23  and  _24
REMARK   12  A    between atoms: _27  and  _29
REMARK   13  A    between atoms: _29  and  _30
REMARK   14  A    between atoms: _29  and  _32
REMARK   15  A    between atoms: _32  and  _33
REMARK   16  A    between atoms: _38  and  _40
REMARK   17  A    between atoms: _40  and  _41
REMARK   18  A    between atoms: _40  and  _43
REMARK   19  A    between atoms: _43  and  _44
REMARK   20  A    between atoms: _47  and  _49
REMARK   21  A    between atoms: _49  and  _50
REMARK   22  A    between atoms: _49  and  _52
REMARK   23  A    between atoms: _52  and  _53
REMARK   24  A    between atoms: _58  and  _60
REMARK   25  A    between atoms: _60  and  _61
REMARK   26  A    between atoms: _60  and  _63
REMARK   27  A    between atoms: _63  and  _64
REMARK   28  A    between atoms: _64  and  _65
REMARK   29  A    between atoms: _65  and  _66
REMARK   30  A    between atoms: _75  and  _77
REMARK   31  A    between atoms: _77  and  _78
REMARK   32  A    between atoms: _77  and  _80
REMARK   33  A    between atoms: _80  and  _81
REMARK   34  A    between atoms: _84  and  _86
REMARK   35  A    between atoms: _86  and  _87
REMARK   36  A    between atoms: _86  and  _89
REMARK   37  A    between atoms: _89  and  _90
REMARK   38  A    between atoms: _90  and  _91
REMARK   39  A    between atoms: _91  and  _92
REMARK   40  A    between atoms: _101  and  _103
REMARK   41  A    between atoms: _103  and  _104
REMARK   42  A    between atoms: _103  and  _106
REMARK   43  A    between atoms: _106  and  _107
REMARK   44  A    between atoms: _109  and  _111
REMARK   45  A    between atoms: _111  and  _112
REMARK   46  A    between atoms: _111  and  _114
REMARK   47  A    between atoms: _114  and  _115
REMARK   48  A    between atoms: _115  and  _116
REMARK   49  A    between atoms: _116  and  _117
REMARK   50  A    between atoms: _126  and  _128
REMARK   51  A    between atoms: _128  and  _129
REMARK   52  A    between atoms: _128  and  _131
REMARK   53  A    between atoms: _131  and  _132
REMARK   54  A    between atoms: _135  and  _137
REMARK   55  A    between atoms: _137  and  _138
REMARK   56  A    between atoms: _137  and  _140
REMARK   57  A    between atoms: _140  and  _141
REMARK   58  A    between atoms: _144  and  _146
REMARK   59  A    between atoms: _146  and  _147
REMARK   60  A    between atoms: _146  and  _149
REMARK   61  A    between atoms: _149  and  _150
REMARK   62  A    between atoms: _153  and  _155
REMARK   63  A    between atoms: _155  and  _156
REMARK   64  A    between atoms: _155  and  _158
REMARK   65  A    between atoms: _161  and  _163
REMARK   66  A    between atoms: _163  and  _164
REMARK   67  A    between atoms: _163  and  _166
REMARK   68  A    between atoms: _166  and  _167
REMARK   69  A    between atoms: _170  and  _172
REMARK   70  A    between atoms: _172  and  _173
REMARK   71  A    between atoms: _172  and  _175
REMARK   72  A    between atoms: _175  and  _176
REMARK   73  A    between atoms: _176  and  _177
REMARK   74  A    between atoms: _179  and  _181
REMARK   75  A    between atoms: _181  and  _182
REMARK   76  A    between atoms: _185  and  _187
REMARK   77  A    between atoms: _187  and  _188
REMARK   78  A    between atoms: _187  and  _190
REMARK   79  A    between atoms: _192  and  _194
REMARK   80  A    between atoms: _194  and  _195
REMARK   81  A    between atoms: _194  and  _197
REMARK   82  A    between atoms: _197  and  _198
REMARK   83  A    between atoms: _200  and  _202
REMARK   84  A    between atoms: _202  and  _203
REMARK   85  A    between atoms: _205  and  _207
REMARK   86  A    between atoms: _207  and  _208
REMARK   87  A    between atoms: _207  and  _210
REMARK   88  A    between atoms: _210  and  _211
REMARK   89  A    between atoms: _214  and  _216
REMARK   90  A    between atoms: _216  and  _217
REMARK   91  A    between atoms: _216  and  _219
REMARK   92  A    between atoms: _219  and  _220
REMARK   93  A    between atoms: _226  and  _228
REMARK   94  A    between atoms: _228  and  _229
REMARK   95  A    between atoms: _228  and  _231
REMARK   96  A    between atoms: _231  and  _232
REMARK   97  A    between atoms: _237  and  _238
REMARK   98  A    between atoms: _240  and  _242
REMARK   99  A    between atoms: _242  and  _243
REMARK  100  A    between atoms: _242  and  _245
REMARK  101  A    between atoms: _245  and  _246
REMARK  102  A    between atoms: _248  and  _250
REMARK  103  A    between atoms: _250  and  _251
REMARK  104  A    between atoms: _250  and  _253
REMARK  105  A    between atoms: _253  and  _254
REMARK  106  A    between atoms: _257  and  _259
REMARK  107  A    between atoms: _259  and  _260
REMARK  108  A    between atoms: _259  and  _262
REMARK  109  A    between atoms: _262  and  _263
REMARK  110  A    between atoms: _266  and  _268
REMARK  111  A    between atoms: _268  and  _269
REMARK  112  A    between atoms: _268  and  _271
REMARK  113  A    between atoms: _271  and  _272
REMARK  114  A    between atoms: _272  and  _273
REMARK  115  A    between atoms: _278  and  _280
REMARK  116  A    between atoms: _280  and  _281
REMARK  117  A    between atoms: _280  and  _283
REMARK  118  A    between atoms: _283  and  _284
REMARK  119  A    between atoms: _284  and  _285
REMARK  120  A    between atoms: _287  and  _289
REMARK  121  A    between atoms: _289  and  _290
REMARK  122  A    between atoms: _289  and  _292
REMARK  123  A    between atoms: _292  and  _293
REMARK  124  A    between atoms: _293  and  _294
REMARK                            x       y       z     vdW  Elec       q    Type
REMARK                         _______ _______ _______ _____ _____    ______ ____
ROOT
ATOM      1  C   ASP A   1      -2.163  -4.915  12.778  0.00  0.00    +0.239 C 
ATOM      2  O   ASP A   1      -1.798  -4.101  13.585  0.00  0.00    -0.274 OA
ATOM      3  N   VAL A   2      -2.441  -6.152  13.160  0.00  0.00    -0.298 N 
ATOM      4  H   VAL A   2      -2.769  -6.826  12.439  0.00  0.00    +0.150 HD
ENDROOT
BRANCH   1   5
ATOM      5  CA  ASP A   1      -2.271  -4.595  11.259  0.00  0.00    +0.156 C 
BRANCH   5   6
ATOM      6  N   ASP A   1      -1.887  -5.791  10.439  0.00  0.00    -0.238 NA
ATOM      7  H   ASP A   1      -2.596  -6.360   9.935  0.00  0.00    +0.142 HD
ENDBRANCH   5   6
BRANCH   5   8
ATOM      8  CB  ASP A   1      -3.690  -4.139  10.945  0.00  0.00    +0.140 C 
BRANCH   8   9
ATOM      9  CG  ASP A   1      -3.962  -3.718   9.429  0.00  0.00    +0.367 C 
ATOM     10  OD2 ASP A   1      -5.199  -3.826   9.029  0.00  0.00    -0.246 OA
ATOM     11  OD1 ASP A   1      -3.005  -3.292   8.650  0.00  0.00    -0.246 OA
ENDBRANCH   8   9
ENDBRANCH   5   8
ENDBRANCH   1   5
BRANCH   3  12
ATOM     12  CA  VAL A   2      -2.310  -6.632  14.564  0.00  0.00    +0.137 C 
BRANCH  12  13
ATOM     13  CB  VAL A   2      -2.767  -8.176  14.621  0.00  0.00    +0.026 C 
ATOM     14  CG2 VAL A   2      -2.416  -8.852  15.920  0.00  0.00    +0.002 C 
ATOM     15  CG1 VAL A   2      -4.253  -8.281  14.412  0.00  0.00    +0.002 C 
ENDBRANCH  12  13
BRANCH  12  16
ATOM     16  C   VAL A   2      -0.829  -6.481  14.959  0.00  0.00    +0.227 C 
ATOM     17  O   VAL A   2      -0.446  -5.841  15.961  0.00  0.00    -0.286 OA
ENDBRANCH  12  16
ENDBRANCH   3  12
TORSDOF 7
REMARK  Name = ../refined-set-2016/3lbz/3lbz_pocket.pdb
REMARK  124 active torsions:
REMARK  status: ('A' for Active; 'I' for Inactive)
REMARK    1  A    between atoms: _1  and  _3
REMARK    2  A    between atoms: _3  and  _4
REMARK    3  A    between atoms: _3  and  _6
REMARK    4  A    between atoms: _6  and  _7
REMARK    5  A    between atoms: _10  and  _12
REMARK    6  A    between atoms: _12  and  _13
REMARK    7  A    between atoms: _12  and  _15
REMARK    8  A    between atoms: _18  and  _20
REMARK    9  A    between atoms: _20  and  _21
REMARK   10  A    between atoms: _20  and  _23
REMARK   11  A    between atoms: _23  and  _24
REMARK   12  A    between atoms: _27  and  _29
REMARK   13  A    between atoms: _29  and  _30
REMARK   14  A    between atoms: _29  and  _32
REMARK   15  A    between atoms: _32  and  _33
REMARK   16  A    between atoms: _38  and  _40
REMARK   17  A    between atoms: _40  and  _41
REMARK   18  A    between atoms: _40  and  _43
REMARK   19  A    between atoms: _43  and  _44
REMARK   20  A    between atoms: _47  and  _49
REMARK   21  A    between atoms: _49  and  _50
REMARK   22  A    between atoms: _49  and  _52
REMARK   23  A    between atoms: _52  and  _53
REMARK   24  A    between atoms: _58  and  _60
REMARK   25  A    between atoms: _60  and  _61
REMARK   26  A    between atoms: _60  and  _63
REMARK   27  A    between atoms: _63  and  _64
REMARK   28  A    between atoms: _64  and  _65
REMARK   29  A    between atoms: _65  and  _66
REMARK   30  A    between atoms: _75  and  _77
REMARK   31  A    between atoms: _77  and  _78
REMARK   32  A    between atoms: _77  and  _80
REMARK   33  A    between atoms: _80  and  _81
REMARK   34  A    between atoms: _84  and  _86
REMARK   35  A    between atoms: _86  and  _87
REMARK   36  A    between atoms: _86  and  _89
REMARK   37  A    between atoms: _89  and  _90
REMARK   38  A    between atoms: _90  and  _91
REMARK   39  A    between atoms: _91  and  _92
REMARK   40  A    between atoms: _101  and  _103
REMARK   41  A    between atoms: _103  and  _104
REMARK   42  A    between atoms: _103  and  _106
REMARK   43  A    between atoms: _106  and  _107
REMARK   44  A    between atoms: _109  and  _111
REMARK   45  A    between atoms: _111  and  _112
REMARK   46  A    between atoms: _111  and  _114
REMARK   47  A    between atoms: _114  and  _115
REMARK   48  A    between atoms: _115  and  _116
REMARK   49  A    between atoms: _116  and  _117
REMARK   50  A    between atoms: _126  and  _128
REMARK   51  A    between atoms: _128  and  _129
REMARK   52  A    between atoms: _128  and  _131
REMARK   53  A    between atoms: _131  and  _132
REMARK   54  A    between atoms: _135  and  _137
REMARK   55  A    between atoms: _137  and  _138
REMARK   56  A    between atoms: _137  and  _140
REMARK   57  A    between atoms: _140  and  _141
REMARK   58  A    between atoms: _144  and  _146
REMARK   59  A    between atoms: _146  and  _147
REMARK   60  A    between atoms: _146  and  _149
REMARK   61  A    between atoms: _149  and  _150
REMARK   62  A    between atoms: _153  and  _155
REMARK   63  A    between atoms: _155  and  _156
REMARK   64  A    between atoms: _155  and  _158
REMARK   65  A    between atoms: _161  and  _163
REMARK   66  A    between atoms: _163  and  _164
REMARK   67  A    between atoms: _163  and  _166
REMARK   68  A    between atoms: _166  and  _167
REMARK   69  A    between atoms: _170  and  _172
REMARK   70  A    between atoms: _172  and  _173
REMARK   71  A    between atoms: _172  and  _175
REMARK   72  A    between atoms: _175  and  _176
REMARK   73  A    between atoms: _176  and  _177
REMARK   74  A    between atoms: _179  and  _181
REMARK   75  A    between atoms: _181  and  _182
REMARK   76  A    between atoms: _185  and  _187
REMARK   77  A    between atoms: _187  and  _188
REMARK   78  A    between atoms: _187  and  _190
REMARK   79  A    between atoms: _192  and  _194
REMARK   80  A    between atoms: _194  and  _195
REMARK   81  A    between atoms: _194  and  _197
REMARK   82  A    between atoms: _197  and  _198
REMARK   83  A    between atoms: _200  and  _202
REMARK   84  A    between atoms: _202  and  _203
REMARK   85  A    between atoms: _205  and  _207
REMARK   86  A    between atoms: _207  and  _208
REMARK   87  A    between atoms: _207  and  _210
REMARK   88  A    between atoms: _210  and  _211
REMARK   89  A    between atoms: _214  and  _216
REMARK   90  A    between atoms: _216  and  _217
REMARK   91  A    between atoms: _216  and  _219
REMARK   92  A    between atoms: _219  and  _220
REMARK   93  A    between atoms: _226  and  _228
REMARK   94  A    between atoms: _228  and  _229
REMARK   95  A    between atoms: _228  and  _231
REMARK   96  A    between atoms: _231  and  _232
REMARK   97  A    between atoms: _237  and  _238
REMARK   98  A    between atoms: _240  and  _242
REMARK   99  A    between atoms: _242  and  _243
REMARK  100  A    between atoms: _242  and  _245
REMARK  101  A    between atoms: _245  and  _246
REMARK  102  A    between atoms: _248  and  _250
REMARK  103  A    between atoms: _250  and  _251
REMARK  104  A    between atoms: _250  and  _253
REMARK  105  A    between atoms: _253  and  _254
REMARK  106  A    between atoms: _257  and  _259
REMARK  107  A    between atoms: _259  and  _260
REMARK  108  A    between atoms: _259  and  _262
REMARK  109  A    between atoms: _262  and  _263
REMARK  110  A    between atoms: _266  and  _268
REMARK  111  A    between atoms: _268  and  _269
REMARK  112  A    between atoms: _268  and  _271
REMARK  113  A    between atoms: _271  and  _272
REMARK  114  A    between atoms: _272  and  _273
REMARK  115  A    between atoms: _278  and  _280
REMARK  116  A    between atoms: _280  and  _281
REMARK  117  A    between atoms: _280  and  _283
REMARK  118  A    between atoms: _283  and  _284
REMARK  119  A    between atoms: _284  and  _285
REMARK  120  A    between atoms: _287  and  _289
REMARK  121  A    between atoms: _289  and  _290
REMARK  122  A    between atoms: _289  and  _292
REMARK  123  A    between atoms: _292  and  _293
REMARK  124  A    between atoms: _293  and  _294
REMARK                            x       y       z     vdW  Elec       q    Type
REMARK                         _______ _______ _______ _____ _____    ______ ____
ROOT
ATOM      1  CA  LEU A   6       2.313  -1.308  22.180  0.00  0.00    +0.149 C 
ENDROOT
BRANCH   1   2
ATOM      2  C   LEU A   6       3.686  -1.502  22.843  0.00  0.00    +0.241 C 
ATOM      3  O   LEU A   6       3.985  -0.979  23.938  0.00  0.00    -0.273 OA
ATOM      4  N   ARG A   7       4.572  -2.237  22.181  0.00  0.00    -0.297 N 
ATOM      5  H   ARG A   7       4.281  -2.696  21.295  0.00  0.00    +0.150 HD
BRANCH   4   6
ATOM      6  CA  ARG A   7       5.928  -2.421  22.650  0.00  0.00    +0.149 C 
BRANCH   6   7
ATOM      7  C   ARG A   7       6.717  -1.121  22.794  0.00  0.00    +0.241 C 
ATOM      8  O   ARG A   7       7.472  -0.939  23.745  0.00  0.00    -0.273 OA
ATOM      9  N   SER A   8       6.659  -0.261  21.788  0.00  0.00    -0.295 N 
ATOM     10  H   SER A   8       6.022  -0.426  20.983  0.00  0.00    +0.150 HD
BRANCH   9  11
ATOM     11  CA  SER A   8       7.497   0.905  21.835  0.00  0.00    +0.178 C 
BRANCH  11  12
ATOM     12  C   SER A   8       6.943   1.909  22.845  0.00  0.00    +0.243 C 
ATOM     13  N   ARG A   9       5.696   1.780  23.290  0.00  0.00    -0.297 N 
ATOM     14  H   ARG A   9       5.102   1.030  22.882  0.00  0.00    +0.150 HD
ATOM     15  O   SER A   8       7.648   2.819  23.195  0.00  0.00    -0.273 OA
BRANCH  13  16
ATOM     16  CA  ARG A   9       5.103   2.660  24.350  0.00  0.00    +0.149 C 
BRANCH  16  17
ATOM     17  C   ARG A   9       5.169   1.920  25.651  0.00  0.00    +0.241 C 
ATOM     18  O   ARG A   9       4.696   2.344  26.697  0.00  0.00    -0.273 OA
ATOM     19  N   ASP A  10       5.730   0.741  25.605  0.00  0.00    -0.297 N 
ATOM     20  H   ASP A  10       6.146   0.384  24.722  0.00  0.00    +0.150 HD
BRANCH  19  21
ATOM     21  CA  ASP A  10       5.758  -0.054  26.810  0.00  0.00    +0.160 C 
BRANCH  21  22
ATOM     22  C   ASP A  10       4.431  -0.511  27.430  0.00  0.00    +0.241 C 
ATOM     23  O   ASP A  10       4.350  -0.744  28.653  0.00  0.00    -0.273 OA
ATOM     24  N   ILE A  11       3.385  -0.684  26.620  0.00  0.00    -0.298 N 
ATOM     25  H   ILE A  11       3.474  -0.550  25.593  0.00  0.00    +0.150 HD
BRANCH  24  26
ATOM     26  CA  ILE A  11       2.141  -1.059  27.209  0.00  0.00    +0.137 C 
BRANCH  26  27
ATOM     27  CB  ILE A  11       0.965  -0.401  26.433  0.00  0.00    +0.026 C 
ATOM     28  CG2 ILE A  11      -0.352  -1.022  26.805  0.00  0.00    +0.002 C 
BRANCH  27  29
ATOM     29  CG1 ILE A  11       0.964   1.144  26.645  0.00  0.00    +0.002 C 
ATOM     30  CD1 ILE A  11       0.364   1.858  25.395  0.00  0.00    +0.000 C 
ENDBRANCH  27  29
ENDBRANCH  26  27
BRANCH  26  31
ATOM     31  C   ILE A  11       2.038  -2.546  27.286  0.00  0.00    +0.227 C 
ATOM     32  O   ILE A  11       2.183  -3.242  26.284  0.00  0.00    -0.286 OA
ENDBRANCH  26  31
ENDBRANCH  24  26
ENDBRANCH  21  22
BRANCH  21  33
ATOM     33  CB  ASP A  10       6.632   0.612  27.850  0.00  0.00    +0.143 C 
BRANCH  33  34
ATOM     34  CG  ASP A  10       7.359  -0.417  28.652  0.00  0.00    +0.367 C 
ATOM     35  OD2 ASP A  10       7.267  -0.333  29.906  0.00  0.00    -0.246 OA
ATOM     36  OD1 ASP A  10       7.944  -1.360  28.013  0.00  0.00    -0.246 OA
ENDBRANCH  33  34
ENDBRANCH  21  33
ENDBRANCH  19  21
ENDBRANCH  16  17
BRANCH  16  37
ATOM     37  CB  ARG A   9       3.624   2.971  24.039  0.00  0.00    +0.033 C 
BRANCH  37  38
ATOM     38  CG  ARG A   9       3.540   4.089  23.042  0.00  0.00    +0.045 C 
BRANCH  38  39
ATOM     39  CD  ARG A   9       2.324   3.976  22.123  0.00  0.00    +0.174 C 
BRANCH  39  40
ATOM     40  NE  ARG A   9       1.297   4.987  22.409  0.00  0.00    -0.265 N 
ATOM     41  HE  ARG A   9       1.301   5.419  23.355  0.00  0.00    +0.259 HD
ATOM     42  CZ  ARG A   9       0.351   5.398  21.543  0.00  0.00    +0.342 C 
ATOM     43  NH2 ARG A   9      -0.523   6.339  21.948  0.00  0.00    -0.292 N 
ATOM     44 HH21 ARG A   9      -0.457   6.730  22.909  0.00  0.00    +0.255 HD
ATOM     45 HH22 ARG A   9      -1.264   6.674  21.299  0.00  0.00    +0.255 HD
ATOM     46  NH1 ARG A   9       0.270   4.889  20.278  0.00  0.00    -0.292 N 
ATOM     47 HH11 ARG A   9       0.949   4.166  19.964  0.00  0.00    +0.255 HD
ATOM     48 HH12 ARG A   9      -0.471   5.224  19.629  0.00  0.00    +0.255 HD
ENDBRANCH  39  40
ENDBRANCH  38  39
ENDBRANCH  37  38
ENDBRANCH  16  37
ENDBRANCH  13  16
ENDBRANCH  11  12
BRANCH  11  49
ATOM     49  CB  SER A   8       7.485   1.568  20.488  0.00  0.00    +0.166 C 
BRANCH  49  50
ATOM     50  OG  SER A   8       6.290   2.301  20.511  0.00  0.00    -0.380 OA
ATOM     51  H   SER A   8       5.527   1.683  20.639  0.00  0.00    +0.211 HD
ENDBRANCH  49  50
ENDBRANCH  11  49
ENDBRANCH   9  11
ENDBRANCH   6   7
BRANCH   6  52
ATOM     52  CB  ARG A   7       6.730  -3.350  21.698  0.00  0.00    +0.033 C 
BRANCH  52  53
ATOM     53  CG  ARG A   7       8.101  -3.735  22.298  0.00  0.00    +0.045 C 
BRANCH  53  54
ATOM     54  CD  ARG A   7       8.866  -4.722  21.413  0.00  0.00    +0.174 C 
BRANCH  54  55
ATOM     55  NE  ARG A   7       9.117  -4.266  20.027  0.00  0.00    -0.265 N 
ATOM     56  CZ  ARG A   7      10.326  -3.987  19.478  0.00  0.00    +0.342 C 
ATOM     57  NH2 ARG A   7      11.472  -4.047  20.177  0.00  0.00    -0.292 N 
ATOM     58 HH21 ARG A   7      11.455  -4.316  21.181  0.00  0.00    +0.255 HD
ATOM     59 HH22 ARG A   7      12.376  -3.824  19.714  0.00  0.00    +0.255 HD
ATOM     60  NH1 ARG A   7      10.400  -3.613  18.187  0.00  0.00    -0.292 N 
ATOM     61 HH11 ARG A   7      11.324  -3.398  17.760  0.00  0.00    +0.255 HD
ATOM     62 HH12 ARG A   7       9.534  -3.539  17.616  0.00  0.00    +0.255 HD
ATOM     63  HE  ARG A   7       8.285  -4.148  19.414  0.00  0.00    +0.259 HD
ENDBRANCH  54  55
ENDBRANCH  53  54
ENDBRANCH  52  53
ENDBRANCH   6  52
ENDBRANCH   4   6
ENDBRANCH   1   2
BRANCH   1  66
ATOM     64  C   ARG A   5       3.104   0.082  20.335  0.00  0.00    +0.241 C 
ATOM     65  O   ARG A   5       3.657   0.845  21.128  0.00  0.00    -0.273 OA
ATOM     66  N   LEU A   6       2.340  -0.918  20.763  0.00  0.00    -0.297 N 
ATOM     67  H   LEU A   6       1.749  -1.435  20.081  0.00  0.00    +0.150 HD
BRANCH  64  68
ATOM     68  CA  ARG A   5       3.314   0.241  18.811  0.00  0.00    +0.149 C 
BRANCH  68  71
ATOM     69  C   ASN A   4       4.674  -1.765  18.428  0.00  0.00    +0.241 C 
ATOM     70  O   ASN A   4       5.598  -1.290  19.090  0.00  0.00    -0.273 OA
ATOM     71  N   ARG A   5       3.594  -1.042  18.089  0.00  0.00    -0.297 N 
ATOM     72  H   ARG A   5       2.959  -1.369  17.333  0.00  0.00    +0.150 HD
BRANCH  69  73
ATOM     73  CA  ASN A   4       4.798  -3.193  17.946  0.00  0.00    +0.158 C 
BRANCH  73  76
ATOM     74  C   LEU A   3       2.993  -4.342  19.046  0.00  0.00    +0.241 C 
ATOM     75  O   LEU A   3       3.488  -4.239  20.207  0.00  0.00    -0.273 OA
ATOM     76  N   ASN A   4       3.582  -3.977  17.939  0.00  0.00    -0.297 N 
ATOM     77  H   ASN A   4       3.166  -4.257  17.028  0.00  0.00    +0.150 HD
BRANCH  74  78
ATOM     78  CA  LEU A   3       1.681  -5.028  18.843  0.00  0.00    +0.149 C 
BRANCH  78  81
ATOM     79  C   ASN A   2       0.461  -3.115  17.927  0.00  0.00    +0.241 C 
ATOM     80  O   ASN A   2       0.608  -2.479  18.964  0.00  0.00    -0.273 OA
ATOM     81  N   LEU A   3       0.844  -4.388  17.794  0.00  0.00    -0.297 N 
ATOM     82  H   LEU A   3       0.556  -4.932  16.956  0.00  0.00    +0.150 HD
BRANCH  79  83
ATOM     83  CA  ASN A   2      -0.206  -2.437  16.754  0.00  0.00    +0.158 C 
BRANCH  83  86
ATOM     84  C   LEU A   1       1.393  -2.595  14.973  0.00  0.00    +0.238 C 
ATOM     85  O   LEU A   1       2.072  -1.804  15.601  0.00  0.00    -0.274 OA
ATOM     86  N   ASN A   2       0.179  -2.874  15.392  0.00  0.00    -0.297 N 
ATOM     87  H   ASN A   2      -0.492  -3.387  14.785  0.00  0.00    +0.150 HD
BRANCH  84  88
ATOM     88  CA  LEU A   1       1.917  -3.239  13.672  0.00  0.00    +0.145 C 
BRANCH  88  89
ATOM     89  N   LEU A   1       1.566  -4.663  13.538  0.00  0.00    -0.238 NA
ATOM     90  H   LEU A   1       0.986  -4.976  12.734  0.00  0.00    +0.142 HD
ENDBRANCH  88  89
BRANCH  88  91
ATOM     91  CB  LEU A   1       1.413  -2.500  12.409  0.00  0.00    +0.026 C 
BRANCH  91  92
ATOM     92  CG  LEU A   1       1.382  -0.981  12.412  0.00  0.00    +0.002 C 
ATOM     93  CD2 LEU A   1       2.800  -0.480  12.590  0.00  0.00    +0.000 C 
ATOM     94  CD1 LEU A   1       0.855  -0.340  11.067  0.00  0.00    +0.000 C 
ENDBRANCH  91  92
ENDBRANCH  88  91
ENDBRANCH  84  88
ENDBRANCH  83  86
BRANCH  83  95
ATOM     95  CB  ASN A   2      -1.683  -2.551  16.932  0.00  0.00    +0.114 C 
BRANCH  95  96
ATOM     96  CG  ASN A   2      -2.420  -1.498  16.138  0.00  0.00    +0.222 C 
ATOM     97  ND2 ASN A   2      -3.714  -1.729  15.936  0.00  0.00    -0.329 N 
ATOM     98 HD21 ASN A   2      -4.153  -2.593  16.312  0.00  0.00    +0.145 HD
ATOM     99 HD22 ASN A   2      -4.287  -1.045  15.402  0.00  0.00    +0.145 HD
ATOM    100  OD1 ASN A   2      -1.830  -0.479  15.713  0.00  0.00    -0.275 OA
ENDBRANCH  95  96
ENDBRANCH  83  95
ENDBRANCH  79  83
ENDBRANCH  78  81
BRANCH  78 101
ATOM    101  CB  LEU A   3       1.960  -6.544  18.617  0.00  0.00    +0.029 C 
BRANCH 101 102
ATOM    102  CG  LEU A   3       0.624  -7.362  18.703  0.00  0.00    +0.002 C 
ATOM    103  CD2 LEU A   3       0.062  -7.394  20.058  0.00  0.00    +0.000 C 
ATOM    104  CD1 LEU A   3       0.820  -8.744  18.124  0.00  0.00    +0.000 C 
ENDBRANCH 101 102
ENDBRANCH  78 101
ENDBRANCH  74  78
ENDBRANCH  73  76
BRANCH  73 105
ATOM    105  CB  ASN A   4       5.441  -3.128  16.542  0.00  0.00    +0.114 C 
BRANCH 105 106
ATOM    106  CG  ASN A   4       6.928  -2.700  16.632  0.00  0.00    +0.222 C 
ATOM    107  ND2 ASN A   4       7.602  -3.186  17.638  0.00  0.00    -0.329 N 
ATOM    108 HD21 ASN A   4       7.149  -3.855  18.293  0.00  0.00    +0.145 HD
ATOM    109 HD22 ASN A   4       8.592  -2.905  17.785  0.00  0.00    +0.145 HD
ATOM    110  OD1 ASN A   4       7.423  -1.913  15.841  0.00  0.00    -0.275 OA
ENDBRANCH 105 106
ENDBRANCH  73 105
ENDBRANCH  69  73
ENDBRANCH  68  71
BRANCH  68 111
ATOM    111  CB  ARG A   5       2.119   1.007  18.179  0.00  0.00    +0.033 C 
BRANCH 111 112
ATOM    112  CG  ARG A   5       2.193   1.020  16.611  0.00  0.00    +0.045 C 
BRANCH 112 113
ATOM    113  CD  ARG A   5       1.203   1.973  15.926  0.00  0.00    +0.174 C 
BRANCH 113 114
ATOM    114  NE  ARG A   5      -0.202   1.706  16.259  0.00  0.00    -0.265 N 
ATOM    115  HE  ARG A   5      -0.435   0.768  16.644  0.00  0.00    +0.259 HD
ATOM    116  CZ  ARG A   5      -1.215   2.587  16.103  0.00  0.00    +0.342 C 
ATOM    117  NH2 ARG A   5      -2.450   2.249  16.457  0.00  0.00    -0.292 N 
ATOM    118 HH21 ARG A   5      -2.637   1.306  16.854  0.00  0.00    +0.255 HD
ATOM    119 HH22 ARG A   5      -3.229   2.927  16.337  0.00  0.00    +0.255 HD
ATOM    120  NH1 ARG A   5      -1.011   3.831  15.615  0.00  0.00    -0.292 N 
ATOM    121 HH11 ARG A   5      -1.812   4.485  15.507  0.00  0.00    +0.255 HD
ATOM    122 HH12 ARG A   5      -0.053   4.134  15.347  0.00  0.00    +0.255 HD
ENDBRANCH 113 114
ENDBRANCH 112 113
ENDBRANCH 111 112
ENDBRANCH  68 111
ENDBRANCH  64  68
ENDBRANCH   1  66
BRANCH   1 123
ATOM    123  CB  LEU A   6       1.477  -2.559  22.326  0.00  0.00    +0.029 C 
BRANCH 123 124
ATOM    124  CG  LEU A   6      -0.031  -2.529  22.077  0.00  0.00    +0.002 C 
ATOM    125  CD2 LEU A   6      -0.701  -1.375  22.987  0.00  0.00    +0.000 C 
ATOM    126  CD1 LEU A   6      -0.591  -3.864  22.388  0.00  0.00    +0.000 C 
ENDBRANCH 123 124
ENDBRANCH   1 123
TORSDOF 50
REMARK  Name = ../refined-set-2016/3lbz/3lbz_pocket.pdb
REMARK  124 active torsions:
REMARK  status: ('A' for Active; 'I' for Inactive)
REMARK    1  A    between atoms: _1  and  _3
REMARK    2  A    between atoms: _3  and  _4
REMARK    3  A    between atoms: _3  and  _6
REMARK    4  A    between atoms: _6  and  _7
REMARK    5  A    between atoms: _10  and  _12
REMARK    6  A    between atoms: _12  and  _13
REMARK    7  A    between atoms: _12  and  _15
REMARK    8  A    between atoms: _18  and  _20
REMARK    9  A    between atoms: _20  and  _21
REMARK   10  A    between atoms: _20  and  _23
REMARK   11  A    between atoms: _23  and  _24
REMARK   12  A    between atoms: _27  and  _29
REMARK   13  A    between atoms: _29  and  _30
REMARK   14  A    between atoms: _29  and  _32
REMARK   15  A    between atoms: _32  and  _33
REMARK   16  A    between atoms: _38  and  _40
REMARK   17  A    between atoms: _40  and  _41
REMARK   18  A    between atoms: _40  and  _43
REMARK   19  A    between atoms: _43  and  _44
REMARK   20  A    between atoms: _47  and  _49
REMARK   21  A    between atoms: _49  and  _50
REMARK   22  A    between atoms: _49  and  _52
REMARK   23  A    between atoms: _52  and  _53
REMARK   24  A    between atoms: _58  and  _60
REMARK   25  A    between atoms: _60  and  _61
REMARK   26  A    between atoms: _60  and  _63
REMARK   27  A    between atoms: _63  and  _64
REMARK   28  A    between atoms: _64  and  _65
REMARK   29  A    between atoms: _65  and  _66
REMARK   30  A    between atoms: _75  and  _77
REMARK   31  A    between atoms: _77  and  _78
REMARK   32  A    between atoms: _77  and  _80
REMARK   33  A    between atoms: _80  and  _81
REMARK   34  A    between atoms: _84  and  _86
REMARK   35  A    between atoms: _86  and  _87
REMARK   36  A    between atoms: _86  and  _89
REMARK   37  A    between atoms: _89  and  _90
REMARK   38  A    between atoms: _90  and  _91
REMARK   39  A    between atoms: _91  and  _92
REMARK   40  A    between atoms: _101  and  _103
REMARK   41  A    between atoms: _103  and  _104
REMARK   42  A    between atoms: _103  and  _106
REMARK   43  A    between atoms: _106  and  _107
REMARK   44  A    between atoms: _109  and  _111
REMARK   45  A    between atoms: _111  and  _112
REMARK   46  A    between atoms: _111  and  _114
REMARK   47  A    between atoms: _114  and  _115
REMARK   48  A    between atoms: _115  and  _116
REMARK   49  A    between atoms: _116  and  _117
REMARK   50  A    between atoms: _126  and  _128
REMARK   51  A    between atoms: _128  and  _129
REMARK   52  A    between atoms: _128  and  _131
REMARK   53  A    between atoms: _131  and  _132
REMARK   54  A    between atoms: _135  and  _137
REMARK   55  A    between atoms: _137  and  _138
REMARK   56  A    between atoms: _137  and  _140
REMARK   57  A    between atoms: _140  and  _141
REMARK   58  A    between atoms: _144  and  _146
REMARK   59  A    between atoms: _146  and  _147
REMARK   60  A    between atoms: _146  and  _149
REMARK   61  A    between atoms: _149  and  _150
REMARK   62  A    between atoms: _153  and  _155
REMARK   63  A    between atoms: _155  and  _156
REMARK   64  A    between atoms: _155  and  _158
REMARK   65  A    between atoms: _161  and  _163
REMARK   66  A    between atoms: _163  and  _164
REMARK   67  A    between atoms: _163  and  _166
REMARK   68  A    between atoms: _166  and  _167
REMARK   69  A    between atoms: _170  and  _172
REMARK   70  A    between atoms: _172  and  _173
REMARK   71  A    between atoms: _172  and  _175
REMARK   72  A    between atoms: _175  and  _176
REMARK   73  A    between atoms: _176  and  _177
REMARK   74  A    between atoms: _179  and  _181
REMARK   75  A    between atoms: _181  and  _182
REMARK   76  A    between atoms: _185  and  _187
REMARK   77  A    between atoms: _187  and  _188
REMARK   78  A    between atoms: _187  and  _190
REMARK   79  A    between atoms: _192  and  _194
REMARK   80  A    between atoms: _194  and  _195
REMARK   81  A    between atoms: _194  and  _197
REMARK   82  A    between atoms: _197  and  _198
REMARK   83  A    between atoms: _200  and  _202
REMARK   84  A    between atoms: _202  and  _203
REMARK   85  A    between atoms: _205  and  _207
REMARK   86  A    between atoms: _207  and  _208
REMARK   87  A    between atoms: _207  and  _210
REMARK   88  A    between atoms: _210  and  _211
REMARK   89  A    between atoms: _214  and  _216
REMARK   90  A    between atoms: _216  and  _217
REMARK   91  A    between atoms: _216  and  _219
REMARK   92  A    between atoms: _219  and  _220
REMARK   93  A    between atoms: _226  and  _228
REMARK   94  A    between atoms: _228  and  _229
REMARK   95  A    between atoms: _228  and  _231
REMARK   96  A    between atoms: _231  and  _232
REMARK   97  A    between atoms: _237  and  _238
REMARK   98  A    between atoms: _240  and  _242
REMARK   99  A    between atoms: _242  and  _243
REMARK  100  A    between atoms: _242  and  _245
REMARK  101  A    between atoms: _245  and  _246
REMARK  102  A    between atoms: _248  and  _250
REMARK  103  A    between atoms: _250  and  _251
REMARK  104  A    between atoms: _250  and  _253
REMARK  105  A    between atoms: _253  and  _254
REMARK  106  A    between atoms: _257  and  _259
REMARK  107  A    between atoms: _259  and  _260
REMARK  108  A    between atoms: _259  and  _262
REMARK  109  A    between atoms: _262  and  _263
REMARK  110  A    between atoms: _266  and  _268
REMARK  111  A    between atoms: _268  and  _269
REMARK  112  A    between atoms: _268  and  _271
REMARK  113  A    between atoms: _271  and  _272
REMARK  114  A    between atoms: _272  and  _273
REMARK  115  A    between atoms: _278  and  _280
REMARK  116  A    between atoms: _280  and  _281
REMARK  117  A    between atoms: _280  and  _283
REMARK  118  A    between atoms: _283  and  _284
REMARK  119  A    between atoms: _284  and  _285
REMARK  120  A    between atoms: _287  and  _289
REMARK  121  A    between atoms: _289  and  _290
REMARK  122  A    between atoms: _289  and  _292
REMARK  123  A    between atoms: _292  and  _293
REMARK  124  A    between atoms: _293  and  _294
REMARK                            x       y       z     vdW  Elec       q    Type
REMARK                         _______ _______ _______ _____ _____    ______ ____
ROOT
ATOM      1  CA  SER A   7     -10.059  -3.035  18.972  0.00  0.00    +0.178 C 
ENDROOT
BRANCH   1   2
ATOM      2  C   SER A   7      -9.814  -1.718  19.696  0.00  0.00    +0.243 C 
ATOM      3  O   SER A   7      -9.144  -1.701  20.706  0.00  0.00    -0.273 OA
ATOM      4  N   GLY A   8     -10.356  -0.618  19.222  0.00  0.00    -0.295 N 
ATOM      5  H   GLY A   8     -10.939  -0.642  18.361  0.00  0.00    +0.150 HD
BRANCH   4   6
ATOM      6  CA  GLY A   8     -10.117   0.673  19.949  0.00  0.00    +0.176 C 
BRANCH   6   7
ATOM      7  C   GLY A   8     -10.681   0.722  21.366  0.00  0.00    +0.243 C 
ATOM      8  O   GLY A   8     -10.148   1.404  22.249  0.00  0.00    -0.273 OA
ATOM      9  N   LEU A   9     -11.739  -0.050  21.583  0.00  0.00    -0.297 N 
ATOM     10  H   LEU A   9     -12.125  -0.595  20.786  0.00  0.00    +0.150 HD
BRANCH   9  11
ATOM     11  CA  LEU A   9     -12.377  -0.170  22.863  0.00  0.00    +0.149 C 
BRANCH  11  12
ATOM     12  C   LEU A   9     -11.498  -0.879  23.857  0.00  0.00    +0.241 C 
ATOM     13  O   LEU A   9     -11.259  -0.352  24.941  0.00  0.00    -0.273 OA
ATOM     14  N   PHE A  10     -11.032  -2.075  23.508  0.00  0.00    -0.297 N 
ATOM     15  H   PHE A  10     -11.397  -2.541  22.653  0.00  0.00    +0.150 HD
BRANCH  14  16
ATOM     16  CA  PHE A  10     -10.015  -2.738  24.313  0.00  0.00    +0.153 C 
BRANCH  16  17
ATOM     17  C   PHE A  10      -8.729  -1.960  24.480  0.00  0.00    +0.241 C 
ATOM     18  O   PHE A  10      -8.150  -1.984  25.569  0.00  0.00    -0.273 OA
ATOM     19  N   TYR A  11      -8.306  -1.217  23.447  0.00  0.00    -0.297 N 
ATOM     20  H   TYR A  11      -8.821  -1.227  22.543  0.00  0.00    +0.150 HD
BRANCH  19  21
ATOM     21  CA  TYR A  11      -7.143  -0.416  23.607  0.00  0.00    +0.153 C 
BRANCH  21  22
ATOM     22  C   TYR A  11      -7.395   0.545  24.752  0.00  0.00    +0.241 C 
ATOM     23  O   TYR A  11      -6.577   0.566  25.621  0.00  0.00    -0.273 OA
ATOM     24  N   SER A  12      -8.541   1.315  24.767  0.00  0.00    -0.296 N 
ATOM     25  H   SER A  12      -9.196   1.201  23.967  0.00  0.00    +0.150 HD
BRANCH  24  26
ATOM     26  CA  SER A  12      -8.934   2.309  25.837  0.00  0.00    +0.166 C 
BRANCH  26  27
ATOM     27  C   SER A  12      -9.141   1.601  27.185  0.00  0.00    +0.229 C 
ATOM     28  O   SER A  12      -8.769   2.103  28.216  0.00  0.00    -0.286 OA
ENDBRANCH  26  27
BRANCH  26  29
ATOM     29  CB  SER A  12     -10.299   2.931  25.468  0.00  0.00    +0.165 C 
BRANCH  29  30
ATOM     30  OG  SER A  12     -10.181   3.580  24.219  0.00  0.00    -0.380 OA
ATOM     31  H   SER A  12      -9.915   2.921  23.530  0.00  0.00    +0.211 HD
ENDBRANCH  29  30
ENDBRANCH  26  29
ENDBRANCH  24  26
ENDBRANCH  21  22
BRANCH  21  32
ATOM     32  CB  TYR A  11      -6.764   0.373  22.323  0.00  0.00    +0.055 C 
BRANCH  32  33
ATOM     33  CG  TYR A  11      -5.588   1.302  22.575  0.00  0.00    -0.020 A 
ATOM     34  CD2 TYR A  11      -5.781   2.660  22.832  0.00  0.00    -0.001 A 
ATOM     35  CE2 TYR A  11      -4.691   3.520  23.122  0.00  0.00    +0.036 A 
ATOM     36  CZ  TYR A  11      -3.412   3.011  23.155  0.00  0.00    +0.134 A 
ATOM     37  CE1 TYR A  11      -3.177   1.673  22.900  0.00  0.00    +0.036 A 
ATOM     38  CD1 TYR A  11      -4.270   0.811  22.651  0.00  0.00    -0.001 A 
BRANCH  36  39
ATOM     39  OH  TYR A  11      -2.369   3.886  23.383  0.00  0.00    -0.506 OA
ATOM     40  HH  TYR A  11      -1.514   3.387  23.380  0.00  0.00    +0.292 HD
ENDBRANCH  36  39
ENDBRANCH  32  33
ENDBRANCH  21  32
ENDBRANCH  19  21
ENDBRANCH  16  17
BRANCH  16  41
ATOM     41  CB  PHE A  10      -9.810  -4.121  23.778  0.00  0.00    +0.055 C 
BRANCH  41  42
ATOM     42  CG  PHE A  10     -11.003  -5.059  24.113  0.00  0.00    -0.020 A 
ATOM     43  CD2 PHE A  10     -11.390  -5.258  25.447  0.00  0.00    -0.004 A 
ATOM     44  CE2 PHE A  10     -12.369  -6.130  25.767  0.00  0.00    -0.000 A 
ATOM     45  CZ  PHE A  10     -13.066  -6.751  24.769  0.00  0.00    -0.000 A 
ATOM     46  CE1 PHE A  10     -12.691  -6.574  23.439  0.00  0.00    -0.000 A 
ATOM     47  CD1 PHE A  10     -11.706  -5.692  23.127  0.00  0.00    -0.004 A 
ENDBRANCH  41  42
ENDBRANCH  16  41
ENDBRANCH  14  16
ENDBRANCH  11  12
BRANCH  11  48
ATOM     48  CB  LEU A   9     -13.741  -0.881  22.754  0.00  0.00    +0.029 C 
BRANCH  48  49
ATOM     49  CG  LEU A   9     -14.476  -0.922  24.085  0.00  0.00    +0.002 C 
ATOM     50  CD2 LEU A   9     -15.027   0.537  24.494  0.00  0.00    +0.000 C 
ATOM     51  CD1 LEU A   9     -15.534  -1.945  24.061  0.00  0.00    +0.000 C 
ENDBRANCH  48  49
ENDBRANCH  11  48
ENDBRANCH   9  11
ENDBRANCH   6   7
ENDBRANCH   4   6
ENDBRANCH   1   2
BRANCH   1  53
ATOM     52  C   CYS A   6      -8.720  -4.467  17.491  0.00  0.00    +0.242 C 
ATOM     53  N   SER A   7      -8.856  -3.868  18.687  0.00  0.00    -0.295 N 
ATOM     54  H   SER A   7      -8.121  -3.986  19.414  0.00  0.00    +0.150 HD
ATOM     55  O   CYS A   6      -9.489  -4.220  16.581  0.00  0.00    -0.273 OA
BRANCH  52  56
ATOM     56  CA  CYS A   6      -7.564  -5.484  17.256  0.00  0.00    +0.160 C 
BRANCH  56  58
ATOM     57  C   ALA A   5      -5.238  -4.735  17.796  0.00  0.00    +0.241 C 
ATOM     58  N   CYS A   6      -6.386  -5.391  18.130  0.00  0.00    -0.296 N 
ATOM     59  H   CYS A   6      -6.431  -5.854  19.060  0.00  0.00    +0.150 HD
ATOM     60  O   ALA A   5      -5.041  -4.197  16.698  0.00  0.00    -0.273 OA
BRANCH  57  61
ATOM     61  CA  ALA A   5      -4.143  -4.686  18.852  0.00  0.00    +0.149 C 
ATOM     62  CB  ALA A   5      -3.085  -5.749  18.574  0.00  0.00    +0.031 C 
BRANCH  61  65
ATOM     63  C   MET A   4      -5.320  -3.800  20.858  0.00  0.00    +0.241 C 
ATOM     64  O   MET A   4      -5.455  -2.626  20.438  0.00  0.00    -0.273 OA
ATOM     65  N   ALA A   5      -4.673  -4.776  20.227  0.00  0.00    -0.297 N 
ATOM     66  H   ALA A   5      -4.530  -5.669  20.740  0.00  0.00    +0.150 HD
BRANCH  63  67
ATOM     67  CA  MET A   4      -5.850  -4.145  22.170  0.00  0.00    +0.149 C 
BRANCH  67  69
ATOM     68  C   LEU A   3      -7.385  -6.091  21.795  0.00  0.00    +0.241 C 
ATOM     69  N   MET A   4      -6.327  -5.548  22.395  0.00  0.00    -0.297 N 
ATOM     70  H   MET A   4      -5.795  -6.138  23.066  0.00  0.00    +0.150 HD
ATOM     71  O   LEU A   3      -8.071  -5.520  20.973  0.00  0.00    -0.273 OA
BRANCH  68  72
ATOM     72  CA  LEU A   3      -7.657  -7.539  22.095  0.00  0.00    +0.149 C 
BRANCH  72  74
ATOM     73  C   VAL A   2      -5.625  -8.374  20.971  0.00  0.00    +0.241 C 
ATOM     74  N   LEU A   3      -6.462  -8.415  21.988  0.00  0.00    -0.297 N 
ATOM     75  H   LEU A   3      -6.277  -9.094  22.754  0.00  0.00    +0.150 HD
ATOM     76  O   VAL A   2      -5.863  -7.745  19.959  0.00  0.00    -0.273 OA
BRANCH  73  77
ATOM     77  CA  VAL A   2      -4.353  -9.205  21.064  0.00  0.00    +0.148 C 
BRANCH  77  79
ATOM     78  C   THR A   1      -3.210  -7.739  22.562  0.00  0.00    +0.241 C 
ATOM     79  N   VAL A   2      -3.747  -8.925  22.322  0.00  0.00    -0.297 N 
ATOM     80  H   VAL A   2      -3.726  -9.659  23.059  0.00  0.00    +0.150 HD
ATOM     81  O   THR A   1      -3.273  -6.892  21.746  0.00  0.00    -0.274 OA
BRANCH  78  82
ATOM     82  CA  THR A   1      -2.550  -7.449  23.916  0.00  0.00    +0.172 C 
BRANCH  82  83
ATOM     83  N   THR A   1      -3.297  -8.182  25.023  0.00  0.00    -0.236 NA
ATOM     84  H   THR A   1      -2.833  -8.944  25.557  0.00  0.00    +0.142 HD
ENDBRANCH  82  83
BRANCH  82  85
ATOM     85  CB  THR A   1      -1.070  -7.874  23.897  0.00  0.00    +0.135 C 
ATOM     86  CG2 THR A   1      -0.313  -7.245  25.062  0.00  0.00    +0.034 C 
BRANCH  85  87
ATOM     87  OG1 THR A   1      -0.995  -9.320  23.981  0.00  0.00    -0.383 OA
ATOM     88  HG1 THR A   1      -0.046  -9.601  23.969  0.00  0.00    +0.210 HD
ENDBRANCH  85  87
ENDBRANCH  82  85
ENDBRANCH  78  82
ENDBRANCH  77  79
BRANCH  77  89
ATOM     89  CB  VAL A   2      -4.673 -10.662  20.927  0.00  0.00    +0.027 C 
ATOM     90  CG2 VAL A   2      -3.343 -11.515  20.882  0.00  0.00    +0.002 C 
ATOM     91  CG1 VAL A   2      -5.669 -10.933  19.745  0.00  0.00    +0.002 C 
ENDBRANCH  77  89
ENDBRANCH  73  77
ENDBRANCH  72  74
BRANCH  72  92
ATOM     92  CB  LEU A   3      -8.269  -7.659  23.470  0.00  0.00    +0.029 C 
BRANCH  92  93
ATOM     93  CG  LEU A   3      -8.787  -9.055  23.915  0.00  0.00    +0.002 C 
ATOM     94  CD2 LEU A   3      -9.474  -8.908  25.257  0.00  0.00    +0.000 C 
ATOM     95  CD1 LEU A   3      -9.690  -9.777  22.967  0.00  0.00    +0.000 C 
ENDBRANCH  92  93
ENDBRANCH  72  92
ENDBRANCH  68  72
ENDBRANCH  67  69
BRANCH  67  96
ATOM     96  CB  MET A   4      -4.713  -3.804  23.082  0.00  0.00    +0.041 C 
BRANCH  96  97
ATOM     97  CG  MET A   4      -5.009  -3.984  24.522  0.00  0.00    +0.060 C 
BRANCH  97  98
ATOM     98  SD  MET A   4      -3.557  -3.516  25.502  0.00  0.00    -0.139 S 
ATOM     99  CE  MET A   4      -3.480  -1.762  25.286  0.00  0.00    +0.069 C 
ENDBRANCH  97  98
ENDBRANCH  96  97
ENDBRANCH  67  96
ENDBRANCH  63  67
ENDBRANCH  61  65
ENDBRANCH  57  61
ENDBRANCH  56  58
BRANCH  56 100
ATOM    100  CB  CYS A   6      -8.144  -6.843  17.464  0.00  0.00    +0.098 C 
ATOM    101  SG  CYS A   6      -6.953  -8.067  16.835  0.00  0.00    -0.080 S 
ENDBRANCH  56 100
ENDBRANCH  52  56
ENDBRANCH   1  53
BRANCH   1 102
ATOM    102  CB  SER A   7     -11.097  -3.918  19.734  0.00  0.00    +0.166 C 
BRANCH 102 103
ATOM    103  OG  SER A   7     -11.738  -3.223  20.712  0.00  0.00    -0.380 OA
ATOM    104  H   SER A   7     -12.219  -2.457  20.310  0.00  0.00    +0.211 HD
ENDBRANCH 102 103
ENDBRANCH   1 102
TORSDOF 44
REMARK  Name = ../refined-set-2016/3lbz/3lbz_pocket.pdb
REMARK  124 active torsions:
REMARK  status: ('A' for Active; 'I' for Inactive)
REMARK    1  A    between atoms: _1  and  _3
REMARK    2  A    between atoms: _3  and  _4
REMARK    3  A    between atoms: _3  and  _6
REMARK    4  A    between atoms: _6  and  _7
REMARK    5  A    between atoms: _10  and  _12
REMARK    6  A    between atoms: _12  and  _13
REMARK    7  A    between atoms: _12  and  _15
REMARK    8  A    between atoms: _18  and  _20
REMARK    9  A    between atoms: _20  and  _21
REMARK   10  A    between atoms: _20  and  _23
REMARK   11  A    between atoms: _23  and  _24
REMARK   12  A    between atoms: _27  and  _29
REMARK   13  A    between atoms: _29  and  _30
REMARK   14  A    between atoms: _29  and  _32
REMARK   15  A    between atoms: _32  and  _33
REMARK   16  A    between atoms: _38  and  _40
REMARK   17  A    between atoms: _40  and  _41
REMARK   18  A    between atoms: _40  and  _43
REMARK   19  A    between atoms: _43  and  _44
REMARK   20  A    between atoms: _47  and  _49
REMARK   21  A    between atoms: _49  and  _50
REMARK   22  A    between atoms: _49  and  _52
REMARK   23  A    between atoms: _52  and  _53
REMARK   24  A    between atoms: _58  and  _60
REMARK   25  A    between atoms: _60  and  _61
REMARK   26  A    between atoms: _60  and  _63
REMARK   27  A    between atoms: _63  and  _64
REMARK   28  A    between atoms: _64  and  _65
REMARK   29  A    between atoms: _65  and  _66
REMARK   30  A    between atoms: _75  and  _77
REMARK   31  A    between atoms: _77  and  _78
REMARK   32  A    between atoms: _77  and  _80
REMARK   33  A    between atoms: _80  and  _81
REMARK   34  A    between atoms: _84  and  _86
REMARK   35  A    between atoms: _86  and  _87
REMARK   36  A    between atoms: _86  and  _89
REMARK   37  A    between atoms: _89  and  _90
REMARK   38  A    between atoms: _90  and  _91
REMARK   39  A    between atoms: _91  and  _92
REMARK   40  A    between atoms: _101  and  _103
REMARK   41  A    between atoms: _103  and  _104
REMARK   42  A    between atoms: _103  and  _106
REMARK   43  A    between atoms: _106  and  _107
REMARK   44  A    between atoms: _109  and  _111
REMARK   45  A    between atoms: _111  and  _112
REMARK   46  A    between atoms: _111  and  _114
REMARK   47  A    between atoms: _114  and  _115
REMARK   48  A    between atoms: _115  and  _116
REMARK   49  A    between atoms: _116  and  _117
REMARK   50  A    between atoms: _126  and  _128
REMARK   51  A    between atoms: _128  and  _129
REMARK   52  A    between atoms: _128  and  _131
REMARK   53  A    between atoms: _131  and  _132
REMARK   54  A    between atoms: _135  and  _137
REMARK   55  A    between atoms: _137  and  _138
REMARK   56  A    between atoms: _137  and  _140
REMARK   57  A    between atoms: _140  and  _141
REMARK   58  A    between atoms: _144  and  _146
REMARK   59  A    between atoms: _146  and  _147
REMARK   60  A    between atoms: _146  and  _149
REMARK   61  A    between atoms: _149  and  _150
REMARK   62  A    between atoms: _153  and  _155
REMARK   63  A    between atoms: _155  and  _156
REMARK   64  A    between atoms: _155  and  _158
REMARK   65  A    between atoms: _161  and  _163
REMARK   66  A    between atoms: _163  and  _164
REMARK   67  A    between atoms: _163  and  _166
REMARK   68  A    between atoms: _166  and  _167
REMARK   69  A    between atoms: _170  and  _172
REMARK   70  A    between atoms: _172  and  _173
REMARK   71  A    between atoms: _172  and  _175
REMARK   72  A    between atoms: _175  and  _176
REMARK   73  A    between atoms: _176  and  _177
REMARK   74  A    between atoms: _179  and  _181
REMARK   75  A    between atoms: _181  and  _182
REMARK   76  A    between atoms: _185  and  _187
REMARK   77  A    between atoms: _187  and  _188
REMARK   78  A    between atoms: _187  and  _190
REMARK   79  A    between atoms: _192  and  _194
REMARK   80  A    between atoms: _194  and  _195
REMARK   81  A    between atoms: _194  and  _197
REMARK   82  A    between atoms: _197  and  _198
REMARK   83  A    between atoms: _200  and  _202
REMARK   84  A    between atoms: _202  and  _203
REMARK   85  A    between atoms: _205  and  _207
REMARK   86  A    between atoms: _207  and  _208
REMARK   87  A    between atoms: _207  and  _210
REMARK   88  A    between atoms: _210  and  _211
REMARK   89  A    between atoms: _214  and  _216
REMARK   90  A    between atoms: _216  and  _217
REMARK   91  A    between atoms: _216  and  _219
REMARK   92  A    between atoms: _219  and  _220
REMARK   93  A    between atoms: _226  and  _228
REMARK   94  A    between atoms: _228  and  _229
REMARK   95  A    between atoms: _228  and  _231
REMARK   96  A    between atoms: _231  and  _232
REMARK   97  A    between atoms: _237  and  _238
REMARK   98  A    between atoms: _240  and  _242
REMARK   99  A    between atoms: _242  and  _243
REMARK  100  A    between atoms: _242  and  _245
REMARK  101  A    between atoms: _245  and  _246
REMARK  102  A    between atoms: _248  and  _250
REMARK  103  A    between atoms: _250  and  _251
REMARK  104  A    between atoms: _250  and  _253
REMARK  105  A    between atoms: _253  and  _254
REMARK  106  A    between atoms: _257  and  _259
REMARK  107  A    between atoms: _259  and  _260
REMARK  108  A    between atoms: _259  and  _262
REMARK  109  A    between atoms: _262  and  _263
REMARK  110  A    between atoms: _266  and  _268
REMARK  111  A    between atoms: _268  and  _269
REMARK  112  A    between atoms: _268  and  _271
REMARK  113  A    between atoms: _271  and  _272
REMARK  114  A    between atoms: _272  and  _273
REMARK  115  A    between atoms: _278  and  _280
REMARK  116  A    between atoms: _280  and  _281
REMARK  117  A    between atoms: _280  and  _283
REMARK  118  A    between atoms: _283  and  _284
REMARK  119  A    between atoms: _284  and  _285
REMARK  120  A    between atoms: _287  and  _289
REMARK  121  A    between atoms: _289  and  _290
REMARK  122  A    between atoms: _289  and  _292
REMARK  123  A    between atoms: _292  and  _293
REMARK  124  A    between atoms: _293  and  _294
REMARK                            x       y       z     vdW  Elec       q    Type
REMARK                         _______ _______ _______ _____ _____    ______ ____
ROOT
ATOM      1  CA  THR A   1      -4.805   1.476  28.762  0.00  0.00    +0.160 C 
ENDROOT
BRANCH   1   2
ATOM      2  N   THR A   1      -5.747   0.419  28.756  0.00  0.00    -0.237 NA
ATOM      3  H   THR A   1      -6.717   0.614  28.435  0.00  0.00    +0.142 HD
ENDBRANCH   1   2
BRANCH   1   4
ATOM      4  C   THR A   1      -5.281   2.378  29.957  0.00  0.00    +0.227 C 
ATOM      5  O   THR A   1      -4.670   3.395  30.328  0.00  0.00    -0.287 OA
ENDBRANCH   1   4
BRANCH   1   6
ATOM      6  CB  THR A   1      -4.865   2.051  27.325  0.00  0.00    +0.134 C 
ATOM      7  CG2 THR A   1      -5.697   3.325  27.181  0.00  0.00    +0.034 C 
BRANCH   6   8
ATOM      8  OG1 THR A   1      -3.543   2.138  26.761  0.00  0.00    -0.383 OA
ATOM      9  HG1 THR A   1      -3.600   2.507  25.844  0.00  0.00    +0.210 HD
ENDBRANCH   6   8
ENDBRANCH   1   6
TORSDOF 4
REMARK  Name = ../refined-set-2016/3lbz/3lbz_pocket.pdb
REMARK  124 active torsions:
REMARK  status: ('A' for Active; 'I' for Inactive)
REMARK    1  A    between atoms: _1  and  _3
REMARK    2  A    between atoms: _3  and  _4
REMARK    3  A    between atoms: _3  and  _6
REMARK    4  A    between atoms: _6  and  _7
REMARK    5  A    between atoms: _10  and  _12
REMARK    6  A    between atoms: _12  and  _13
REMARK    7  A    between atoms: _12  and  _15
REMARK    8  A    between atoms: _18  and  _20
REMARK    9  A    between atoms: _20  and  _21
REMARK   10  A    between atoms: _20  and  _23
REMARK   11  A    between atoms: _23  and  _24
REMARK   12  A    between atoms: _27  and  _29
REMARK   13  A    between atoms: _29  and  _30
REMARK   14  A    between atoms: _29  and  _32
REMARK   15  A    between atoms: _32  and  _33
REMARK   16  A    between atoms: _38  and  _40
REMARK   17  A    between atoms: _40  and  _41
REMARK   18  A    between atoms: _40  and  _43
REMARK   19  A    between atoms: _43  and  _44
REMARK   20  A    between atoms: _47  and  _49
REMARK   21  A    between atoms: _49  and  _50
REMARK   22  A    between atoms: _49  and  _52
REMARK   23  A    between atoms: _52  and  _53
REMARK   24  A    between atoms: _58  and  _60
REMARK   25  A    between atoms: _60  and  _61
REMARK   26  A    between atoms: _60  and  _63
REMARK   27  A    between atoms: _63  and  _64
REMARK   28  A    between atoms: _64  and  _65
REMARK   29  A    between atoms: _65  and  _66
REMARK   30  A    between atoms: _75  and  _77
REMARK   31  A    between atoms: _77  and  _78
REMARK   32  A    between atoms: _77  and  _80
REMARK   33  A    between atoms: _80  and  _81
REMARK   34  A    between atoms: _84  and  _86
REMARK   35  A    between atoms: _86  and  _87
REMARK   36  A    between atoms: _86  and  _89
REMARK   37  A    between atoms: _89  and  _90
REMARK   38  A    between atoms: _90  and  _91
REMARK   39  A    between atoms: _91  and  _92
REMARK   40  A    between atoms: _101  and  _103
REMARK   41  A    between atoms: _103  and  _104
REMARK   42  A    between atoms: _103  and  _106
REMARK   43  A    between atoms: _106  and  _107
REMARK   44  A    between atoms: _109  and  _111
REMARK   45  A    between atoms: _111  and  _112
REMARK   46  A    between atoms: _111  and  _114
REMARK   47  A    between atoms: _114  and  _115
REMARK   48  A    between atoms: _115  and  _116
REMARK   49  A    between atoms: _116  and  _117
REMARK   50  A    between atoms: _126  and  _128
REMARK   51  A    between atoms: _128  and  _129
REMARK   52  A    between atoms: _128  and  _131
REMARK   53  A    between atoms: _131  and  _132
REMARK   54  A    between atoms: _135  and  _137
REMARK   55  A    between atoms: _137  and  _138
REMARK   56  A    between atoms: _137  and  _140
REMARK   57  A    between atoms: _140  and  _141
REMARK   58  A    between atoms: _144  and  _146
REMARK   59  A    between atoms: _146  and  _147
REMARK   60  A    between atoms: _146  and  _149
REMARK   61  A    between atoms: _149  and  _150
REMARK   62  A    between atoms: _153  and  _155
REMARK   63  A    between atoms: _155  and  _156
REMARK   64  A    between atoms: _155  and  _158
REMARK   65  A    between atoms: _161  and  _163
REMARK   66  A    between atoms: _163  and  _164
REMARK   67  A    between atoms: _163  and  _166
REMARK   68  A    between atoms: _166  and  _167
REMARK   69  A    between atoms: _170  and  _172
REMARK   70  A    between atoms: _172  and  _173
REMARK   71  A    between atoms: _172  and  _175
REMARK   72  A    between atoms: _175  and  _176
REMARK   73  A    between atoms: _176  and  _177
REMARK   74  A    between atoms: _179  and  _181
REMARK   75  A    between atoms: _181  and  _182
REMARK   76  A    between atoms: _185  and  _187
REMARK   77  A    between atoms: _187  and  _188
REMARK   78  A    between atoms: _187  and  _190
REMARK   79  A    between atoms: _192  and  _194
REMARK   80  A    between atoms: _194  and  _195
REMARK   81  A    between atoms: _194  and  _197
REMARK   82  A    between atoms: _197  and  _198
REMARK   83  A    between atoms: _200  and  _202
REMARK   84  A    between atoms: _202  and  _203
REMARK   85  A    between atoms: _205  and  _207
REMARK   86  A    between atoms: _207  and  _208
REMARK   87  A    between atoms: _207  and  _210
REMARK   88  A    between atoms: _210  and  _211
REMARK   89  A    between atoms: _214  and  _216
REMARK   90  A    between atoms: _216  and  _217
REMARK   91  A    between atoms: _216  and  _219
REMARK   92  A    between atoms: _219  and  _220
REMARK   93  A    between atoms: _226  and  _228
REMARK   94  A    between atoms: _228  and  _229
REMARK   95  A    between atoms: _228  and  _231
REMARK   96  A    between atoms: _231  and  _232
REMARK   97  A    between atoms: _237  and  _238
REMARK   98  A    between atoms: _240  and  _242
REMARK   99  A    between atoms: _242  and  _243
REMARK  100  A    between atoms: _242  and  _245
REMARK  101  A    between atoms: _245  and  _246
REMARK  102  A    between atoms: _248  and  _250
REMARK  103  A    between atoms: _250  and  _251
REMARK  104  A    between atoms: _250  and  _253
REMARK  105  A    between atoms: _253  and  _254
REMARK  106  A    between atoms: _257  and  _259
REMARK  107  A    between atoms: _259  and  _260
REMARK  108  A    between atoms: _259  and  _262
REMARK  109  A    between atoms: _262  and  _263
REMARK  110  A    between atoms: _266  and  _268
REMARK  111  A    between atoms: _268  and  _269
REMARK  112  A    between atoms: _268  and  _271
REMARK  113  A    between atoms: _271  and  _272
REMARK  114  A    between atoms: _272  and  _273
REMARK  115  A    between atoms: _278  and  _280
REMARK  116  A    between atoms: _280  and  _281
REMARK  117  A    between atoms: _280  and  _283
REMARK  118  A    between atoms: _283  and  _284
REMARK  119  A    between atoms: _284  and  _285
REMARK  120  A    between atoms: _287  and  _289
REMARK  121  A    between atoms: _289  and  _290
REMARK  122  A    between atoms: _289  and  _292
REMARK  123  A    between atoms: _292  and  _293
REMARK  124  A    between atoms: _293  and  _294
REMARK                            x       y       z     vdW  Elec       q    Type
REMARK                         _______ _______ _______ _____ _____    ______ ____
ROOT
ATOM      1  C   GLN A   2     -13.299  -0.702  16.489  0.00  0.00    +0.241 C 
ATOM      2  O   GLN A   2     -12.064  -0.476  16.533  0.00  0.00    -0.273 OA
ATOM      3  N   MET A   3     -13.834  -1.562  15.645  0.00  0.00    -0.297 N 
ATOM      4  H   MET A   3     -14.865  -1.696  15.665  0.00  0.00    +0.150 HD
ENDROOT
BRANCH   3   5
ATOM      5  CA  MET A   3     -13.070  -2.319  14.704  0.00  0.00    +0.149 C 
BRANCH   5   6
ATOM      6  C   MET A   3     -13.497  -1.795  13.321  0.00  0.00    +0.241 C 
ATOM      7  N   GLU A   4     -12.887  -0.688  12.955  0.00  0.00    -0.298 N 
ATOM      8  H   GLU A   4     -12.124  -0.335  13.567  0.00  0.00    +0.150 HD
ATOM      9  O   MET A   3     -14.417  -2.324  12.664  0.00  0.00    -0.273 OA
BRANCH   7  10
ATOM     10  CA  GLU A   4     -13.205   0.094  11.737  0.00  0.00    +0.137 C 
BRANCH  10  11
ATOM     11  C   GLU A   4     -13.104  -0.628  10.373  0.00  0.00    +0.227 C 
ATOM     12  O   GLU A   4     -13.997  -0.475   9.574  0.00  0.00    -0.286 OA
ENDBRANCH  10  11
BRANCH  10  13
ATOM     13  CB  GLU A   4     -12.412   1.411  11.753  0.00  0.00    +0.039 C 
BRANCH  13  14
ATOM     14  CG  GLU A   4     -13.068   2.573  10.868  0.00  0.00    +0.116 C 
BRANCH  14  15
ATOM     15  CD  GLU A   4     -14.639   2.566  10.853  0.00  0.00    +0.365 C 
ATOM     16  OE2 GLU A   4     -15.251   2.574  11.955  0.00  0.00    -0.246 OA
ATOM     17  OE1 GLU A   4     -15.246   2.550   9.745  0.00  0.00    -0.246 OA
ENDBRANCH  14  15
ENDBRANCH  13  14
ENDBRANCH  10  13
ENDBRANCH   7  10
ENDBRANCH   5   6
BRANCH   5  18
ATOM     18  CB  MET A   3     -13.429  -3.784  14.881  0.00  0.00    +0.041 C 
BRANCH  18  19
ATOM     19  CG  MET A   3     -12.900  -4.350  16.150  0.00  0.00    +0.060 C 
BRANCH  19  20
ATOM     20  SD  MET A   3     -13.620  -5.964  16.502  0.00  0.00    -0.139 S 
ATOM     21  CE  MET A   3     -12.680  -7.125  15.466  0.00  0.00    +0.069 C 
ENDBRANCH  19  20
ENDBRANCH  18  19
ENDBRANCH   5  18
ENDBRANCH   3   5
BRANCH   1  22
ATOM     22  CA  GLN A   2     -14.329   0.074  17.360  0.00  0.00    +0.149 C 
BRANCH  22  25
ATOM     23  C   LEU A   1     -14.724  -1.680  19.008  0.00  0.00    +0.238 C 
ATOM     24  O   LEU A   1     -13.553  -1.713  19.263  0.00  0.00    -0.274 OA
ATOM     25  N   GLN A   2     -15.220  -0.808  18.153  0.00  0.00    -0.297 N 
ATOM     26  H   GLN A   2     -16.251  -0.737  18.033  0.00  0.00    +0.150 HD
BRANCH  23  27
ATOM     27  CA  LEU A   1     -15.630  -2.609  19.715  0.00  0.00    +0.145 C 
BRANCH  27  28
ATOM     28  N   LEU A   1     -17.030  -2.240  19.501  0.00  0.00    -0.238 NA
ATOM     29  H   LEU A   1     -17.615  -2.827  18.873  0.00  0.00    +0.142 HD
ENDBRANCH  27  28
BRANCH  27  30
ATOM     30  CB  LEU A   1     -15.350  -4.065  19.292  0.00  0.00    +0.026 C 
BRANCH  30  31
ATOM     31  CG  LEU A   1     -16.100  -5.097  20.121  0.00  0.00    +0.002 C 
ATOM     32  CD2 LEU A   1     -15.851  -4.871  21.616  0.00  0.00    +0.000 C 
ATOM     33  CD1 LEU A   1     -15.704  -6.550  19.714  0.00  0.00    +0.000 C 
ENDBRANCH  30  31
ENDBRANCH  27  30
ENDBRANCH  23  27
ENDBRANCH  22  25
BRANCH  22  34
ATOM     34  CB  GLN A   2     -13.598   1.102  18.236  0.00  0.00    +0.039 C 
BRANCH  34  35
ATOM     35  CG  GLN A   2     -14.475   1.991  19.138  0.00  0.00    +0.087 C 
BRANCH  35  36
ATOM     36  CD  GLN A   2     -13.660   2.756  20.195  0.00  0.00    +0.219 C 
ATOM     37  NE2 GLN A   2     -14.241   2.955  21.355  0.00  0.00    -0.329 N 
ATOM     38 HE21 GLN A   2     -13.726   3.439  22.118  0.00  0.00    +0.145 HD
ATOM     39 HE22 GLN A   2     -15.216   2.629  21.511  0.00  0.00    +0.145 HD
ATOM     40  OE1 GLN A   2     -12.518   3.123  19.972  0.00  0.00    -0.275 OA
ENDBRANCH  35  36
ENDBRANCH  34  35
ENDBRANCH  22  34
ENDBRANCH   1  22
TORSDOF 19
REMARK  Name = ../refined-set-2016/3lbz/3lbz_pocket.pdb
REMARK  124 active torsions:
REMARK  status: ('A' for Active; 'I' for Inactive)
REMARK    1  A    between atoms: _1  and  _3
REMARK    2  A    between atoms: _3  and  _4
REMARK    3  A    between atoms: _3  and  _6
REMARK    4  A    between atoms: _6  and  _7
REMARK    5  A    between atoms: _10  and  _12
REMARK    6  A    between atoms: _12  and  _13
REMARK    7  A    between atoms: _12  and  _15
REMARK    8  A    between atoms: _18  and  _20
REMARK    9  A    between atoms: _20  and  _21
REMARK   10  A    between atoms: _20  and  _23
REMARK   11  A    between atoms: _23  and  _24
REMARK   12  A    between atoms: _27  and  _29
REMARK   13  A    between atoms: _29  and  _30
REMARK   14  A    between atoms: _29  and  _32
REMARK   15  A    between atoms: _32  and  _33
REMARK   16  A    between atoms: _38  and  _40
REMARK   17  A    between atoms: _40  and  _41
REMARK   18  A    between atoms: _40  and  _43
REMARK   19  A    between atoms: _43  and  _44
REMARK   20  A    between atoms: _47  and  _49
REMARK   21  A    between atoms: _49  and  _50
REMARK   22  A    between atoms: _49  and  _52
REMARK   23  A    between atoms: _52  and  _53
REMARK   24  A    between atoms: _58  and  _60
REMARK   25  A    between atoms: _60  and  _61
REMARK   26  A    between atoms: _60  and  _63
REMARK   27  A    between atoms: _63  and  _64
REMARK   28  A    between atoms: _64  and  _65
REMARK   29  A    between atoms: _65  and  _66
REMARK   30  A    between atoms: _75  and  _77
REMARK   31  A    between atoms: _77  and  _78
REMARK   32  A    between atoms: _77  and  _80
REMARK   33  A    between atoms: _80  and  _81
REMARK   34  A    between atoms: _84  and  _86
REMARK   35  A    between atoms: _86  and  _87
REMARK   36  A    between atoms: _86  and  _89
REMARK   37  A    between atoms: _89  and  _90
REMARK   38  A    between atoms: _90  and  _91
REMARK   39  A    between atoms: _91  and  _92
REMARK   40  A    between atoms: _101  and  _103
REMARK   41  A    between atoms: _103  and  _104
REMARK   42  A    between atoms: _103  and  _106
REMARK   43  A    between atoms: _106  and  _107
REMARK   44  A    between atoms: _109  and  _111
REMARK   45  A    between atoms: _111  and  _112
REMARK   46  A    between atoms: _111  and  _114
REMARK   47  A    between atoms: _114  and  _115
REMARK   48  A    between atoms: _115  and  _116
REMARK   49  A    between atoms: _116  and  _117
REMARK   50  A    between atoms: _126  and  _128
REMARK   51  A    between atoms: _128  and  _129
REMARK   52  A    between atoms: _128  and  _131
REMARK   53  A    between atoms: _131  and  _132
REMARK   54  A    between atoms: _135  and  _137
REMARK   55  A    between atoms: _137  and  _138
REMARK   56  A    between atoms: _137  and  _140
REMARK   57  A    between atoms: _140  and  _141
REMARK   58  A    between atoms: _144  and  _146
REMARK   59  A    between atoms: _146  and  _147
REMARK   60  A    between atoms: _146  and  _149
REMARK   61  A    between atoms: _149  and  _150
REMARK   62  A    between atoms: _153  and  _155
REMARK   63  A    between atoms: _155  and  _156
REMARK   64  A    between atoms: _155  and  _158
REMARK   65  A    between atoms: _161  and  _163
REMARK   66  A    between atoms: _163  and  _164
REMARK   67  A    between atoms: _163  and  _166
REMARK   68  A    between atoms: _166  and  _167
REMARK   69  A    between atoms: _170  and  _172
REMARK   70  A    between atoms: _172  and  _173
REMARK   71  A    between atoms: _172  and  _175
REMARK   72  A    between atoms: _175  and  _176
REMARK   73  A    between atoms: _176  and  _177
REMARK   74  A    between atoms: _179  and  _181
REMARK   75  A    between atoms: _181  and  _182
REMARK   76  A    between atoms: _185  and  _187
REMARK   77  A    between atoms: _187  and  _188
REMARK   78  A    between atoms: _187  and  _190
REMARK   79  A    between atoms: _192  and  _194
REMARK   80  A    between atoms: _194  and  _195
REMARK   81  A    between atoms: _194  and  _197
REMARK   82  A    between atoms: _197  and  _198
REMARK   83  A    between atoms: _200  and  _202
REMARK   84  A    between atoms: _202  and  _203
REMARK   85  A    between atoms: _205  and  _207
REMARK   86  A    between atoms: _207  and  _208
REMARK   87  A    between atoms: _207  and  _210
REMARK   88  A    between atoms: _210  and  _211
REMARK   89  A    between atoms: _214  and  _216
REMARK   90  A    between atoms: _216  and  _217
REMARK   91  A    between atoms: _216  and  _219
REMARK   92  A    between atoms: _219  and  _220
REMARK   93  A    between atoms: _226  and  _228
REMARK   94  A    between atoms: _228  and  _229
REMARK   95  A    between atoms: _228  and  _231
REMARK   96  A    between atoms: _231  and  _232
REMARK   97  A    between atoms: _237  and  _238
REMARK   98  A    between atoms: _240  and  _242
REMARK   99  A    between atoms: _242  and  _243
REMARK  100  A    between atoms: _242  and  _245
REMARK  101  A    between atoms: _245  and  _246
REMARK  102  A    between atoms: _248  and  _250
REMARK  103  A    between atoms: _250  and  _251
REMARK  104  A    between atoms: _250  and  _253
REMARK  105  A    between atoms: _253  and  _254
REMARK  106  A    between atoms: _257  and  _259
REMARK  107  A    between atoms: _259  and  _260
REMARK  108  A    between atoms: _259  and  _262
REMARK  109  A    between atoms: _262  and  _263
REMARK  110  A    between atoms: _266  and  _268
REMARK  111  A    between atoms: _268  and  _269
REMARK  112  A    between atoms: _268  and  _271
REMARK  113  A    between atoms: _271  and  _272
REMARK  114  A    between atoms: _272  and  _273
REMARK  115  A    between atoms: _278  and  _280
REMARK  116  A    between atoms: _280  and  _281
REMARK  117  A    between atoms: _280  and  _283
REMARK  118  A    between atoms: _283  and  _284
REMARK  119  A    between atoms: _284  and  _285
REMARK  120  A    between atoms: _287  and  _289
REMARK  121  A    between atoms: _289  and  _290
REMARK  122  A    between atoms: _289  and  _292
REMARK  123  A    between atoms: _292  and  _293
REMARK  124  A    between atoms: _293  and  _294
REMARK                            x       y       z     vdW  Elec       q    Type
REMARK                         _______ _______ _______ _____ _____    ______ ____
ROOT
ATOM      1  O   HOH     1     -11.222  -3.655  12.262  0.00  0.00    +0.000 OA
ENDROOT
TORSDOF 0
