REMARK  Name = ../refined-set-2016/4oma/4oma_pocket.pdb
REMARK  229 active torsions:
REMARK  status: ('A' for Active; 'I' for Inactive)
REMARK    1  A    between atoms: _1  and  _3
REMARK    2  A    between atoms: _3  and  _4
REMARK    3  A    between atoms: _3  and  _6
REMARK    4  A    between atoms: _6  and  _7
REMARK    5  A    between atoms: _10  and  _12
REMARK    6  A    between atoms: _12  and  _13
REMARK    7  A    between atoms: _16  and  _18
REMARK    8  A    between atoms: _18  and  _19
REMARK    9  A    between atoms: _18  and  _21
REMARK   10  A    between atoms: _21  and  _22
REMARK   11  A    between atoms: _24  and  _26
REMARK   12  A    between atoms: _26  and  _27
REMARK   13  A    between atoms: _29  and  _31
REMARK   14  A    between atoms: _31  and  _32
REMARK   15  A    between atoms: _31  and  _34
REMARK   16  A    between atoms: _34  and  _35
REMARK   17  A    between atoms: _38  and  _40
REMARK   18  A    between atoms: _40  and  _41
REMARK   19  A    between atoms: _40  and  _43
REMARK   20  A    between atoms: _43  and  _44
REMARK   21  A    between atoms: _46  and  _48
REMARK   22  A    between atoms: _48  and  _49
REMARK   23  A    between atoms: _52  and  _54
REMARK   24  A    between atoms: _54  and  _55
REMARK   25  A    between atoms: _54  and  _57
REMARK   26  A    between atoms: _57  and  _58
REMARK   27  A    between atoms: _61  and  _63
REMARK   28  A    between atoms: _63  and  _64
REMARK   29  A    between atoms: _63  and  _66
REMARK   30  A    between atoms: _66  and  _67
REMARK   31  A    between atoms: _70  and  _72
REMARK   32  A    between atoms: _72  and  _73
REMARK   33  A    between atoms: _76  and  _78
REMARK   34  A    between atoms: _78  and  _79
REMARK   35  A    between atoms: _78  and  _81
REMARK   36  A    between atoms: _81  and  _82
REMARK   37  A    between atoms: _85  and  _87
REMARK   38  A    between atoms: _87  and  _88
REMARK   39  A    between atoms: _87  and  _90
REMARK   40  A    between atoms: _90  and  _91
REMARK   41  A    between atoms: _96  and  _97
REMARK   42  A    between atoms: _99  and  _101
REMARK   43  A    between atoms: _101  and  _102
REMARK   44  A    between atoms: _104  and  _106
REMARK   45  A    between atoms: _106  and  _107
REMARK   46  A    between atoms: _106  and  _109
REMARK   47  A    between atoms: _111  and  _113
REMARK   48  A    between atoms: _113  and  _114
REMARK   49  A    between atoms: _113  and  _116
REMARK   50  A    between atoms: _116  and  _117
REMARK   51  A    between atoms: _120  and  _122
REMARK   52  A    between atoms: _122  and  _123
REMARK   53  A    between atoms: _122  and  _125
REMARK   54  A    between atoms: _125  and  _126
REMARK   55  A    between atoms: _131  and  _132
REMARK   56  A    between atoms: _134  and  _136
REMARK   57  A    between atoms: _136  and  _137
REMARK   58  A    between atoms: _136  and  _139
REMARK   59  A    between atoms: _139  and  _140
REMARK   60  A    between atoms: _143  and  _145
REMARK   61  A    between atoms: _145  and  _146
REMARK   62  A    between atoms: _145  and  _148
REMARK   63  A    between atoms: _148  and  _149
REMARK   64  A    between atoms: _149  and  _150
REMARK   65  A    between atoms: _153  and  _155
REMARK   66  A    between atoms: _155  and  _156
REMARK   67  A    between atoms: _155  and  _158
REMARK   68  A    between atoms: _158  and  _159
REMARK   69  A    between atoms: _163  and  _164
REMARK   70  A    between atoms: _169  and  _171
REMARK   71  A    between atoms: _171  and  _172
REMARK   72  A    between atoms: _175  and  _177
REMARK   73  A    between atoms: _177  and  _178
REMARK   74  A    between atoms: _177  and  _180
REMARK   75  A    between atoms: _180  and  _181
REMARK   76  A    between atoms: _186  and  _188
REMARK   77  A    between atoms: _188  and  _189
REMARK   78  A    between atoms: _188  and  _191
REMARK   79  A    between atoms: _191  and  _192
REMARK   80  A    between atoms: _195  and  _197
REMARK   81  A    between atoms: _197  and  _198
REMARK   82  A    between atoms: _197  and  _200
REMARK   83  A    between atoms: _200  and  _201
REMARK   84  A    between atoms: _206  and  _208
REMARK   85  A    between atoms: _208  and  _209
REMARK   86  A    between atoms: _208  and  _211
REMARK   87  A    between atoms: _211  and  _212
REMARK   88  A    between atoms: _215  and  _217
REMARK   89  A    between atoms: _217  and  _218
REMARK   90  A    between atoms: _217  and  _220
REMARK   91  A    between atoms: _220  and  _221
REMARK   92  A    between atoms: _227  and  _229
REMARK   93  A    between atoms: _229  and  _230
REMARK   94  A    between atoms: _229  and  _232
REMARK   95  A    between atoms: _232  and  _233
REMARK   96  A    between atoms: _233  and  _234
REMARK   97  A    between atoms: _236  and  _238
REMARK   98  A    between atoms: _238  and  _239
REMARK   99  A    between atoms: _238  and  _241
REMARK  100  A    between atoms: _244  and  _246
REMARK  101  A    between atoms: _246  and  _247
REMARK  102  A    between atoms: _246  and  _249
REMARK  103  A    between atoms: _249  and  _250
REMARK  104  A    between atoms: _255  and  _257
REMARK  105  A    between atoms: _257  and  _258
REMARK  106  A    between atoms: _257  and  _260
REMARK  107  A    between atoms: _260  and  _261
REMARK  108  A    between atoms: _263  and  _265
REMARK  109  A    between atoms: _265  and  _266
REMARK  110  A    between atoms: _265  and  _268
REMARK  111  A    between atoms: _271  and  _273
REMARK  112  A    between atoms: _273  and  _274
REMARK  113  A    between atoms: _273  and  _276
REMARK  114  A    between atoms: _276  and  _277
REMARK  115  A    between atoms: _280  and  _282
REMARK  116  A    between atoms: _282  and  _283
REMARK  117  A    between atoms: _282  and  _285
REMARK  118  A    between atoms: _285  and  _286
REMARK  119  A    between atoms: _286  and  _287
REMARK  120  A    between atoms: _287  and  _288
REMARK  121  A    between atoms: _288  and  _289
REMARK  122  A    between atoms: _293  and  _295
REMARK  123  A    between atoms: _295  and  _296
REMARK  124  A    between atoms: _295  and  _298
REMARK  125  A    between atoms: _301  and  _303
REMARK  126  A    between atoms: _303  and  _304
REMARK  127  A    between atoms: _303  and  _306
REMARK  128  A    between atoms: _306  and  _307
REMARK  129  A    between atoms: _310  and  _312
REMARK  130  A    between atoms: _312  and  _313
REMARK  131  A    between atoms: _315  and  _317
REMARK  132  A    between atoms: _317  and  _318
REMARK  133  A    between atoms: _320  and  _322
REMARK  134  A    between atoms: _322  and  _323
REMARK  135  A    between atoms: _322  and  _325
REMARK  136  A    between atoms: _325  and  _326
REMARK  137  A    between atoms: _329  and  _331
REMARK  138  A    between atoms: _331  and  _332
REMARK  139  A    between atoms: _331  and  _334
REMARK  140  A    between atoms: _334  and  _335
REMARK  141  A    between atoms: _338  and  _340
REMARK  142  A    between atoms: _340  and  _341
REMARK  143  A    between atoms: _344  and  _346
REMARK  144  A    between atoms: _346  and  _347
REMARK  145  A    between atoms: _346  and  _349
REMARK  146  A    between atoms: _352  and  _354
REMARK  147  A    between atoms: _354  and  _355
REMARK  148  A    between atoms: _354  and  _357
REMARK  149  A    between atoms: _357  and  _358
REMARK  150  A    between atoms: _360  and  _362
REMARK  151  A    between atoms: _362  and  _363
REMARK  152  A    between atoms: _362  and  _365
REMARK  153  A    between atoms: _365  and  _366
REMARK  154  A    between atoms: _369  and  _371
REMARK  155  A    between atoms: _371  and  _372
REMARK  156  A    between atoms: _374  and  _376
REMARK  157  A    between atoms: _376  and  _377
REMARK  158  A    between atoms: _376  and  _379
REMARK  159  A    between atoms: _379  and  _380
REMARK  160  A    between atoms: _383  and  _385
REMARK  161  A    between atoms: _385  and  _386
REMARK  162  A    between atoms: _385  and  _388
REMARK  163  A    between atoms: _388  and  _389
REMARK  164  A    between atoms: _389  and  _390
REMARK  165  A    between atoms: _395  and  _397
REMARK  166  A    between atoms: _397  and  _398
REMARK  167  A    between atoms: _397  and  _400
REMARK  168  A    between atoms: _400  and  _401
REMARK  169  A    between atoms: _404  and  _406
REMARK  170  A    between atoms: _406  and  _407
REMARK  171  A    between atoms: _406  and  _409
REMARK  172  A    between atoms: _409  and  _410
REMARK  173  A    between atoms: _410  and  _411
REMARK  174  A    between atoms: _411  and  _412
REMARK  175  A    between atoms: _421  and  _423
REMARK  176  A    between atoms: _423  and  _424
REMARK  177  A    between atoms: _423  and  _426
REMARK  178  A    between atoms: _426  and  _427
REMARK  179  A    between atoms: _429  and  _431
REMARK  180  A    between atoms: _431  and  _432
REMARK  181  A    between atoms: _431  and  _434
REMARK  182  A    between atoms: _434  and  _435
REMARK  183  A    between atoms: _438  and  _440
REMARK  184  A    between atoms: _440  and  _441
REMARK  185  A    between atoms: _440  and  _443
REMARK  186  A    between atoms: _443  and  _444
REMARK  187  A    between atoms: _450  and  _452
REMARK  188  A    between atoms: _452  and  _453
REMARK  189  A    between atoms: _452  and  _455
REMARK  190  A    between atoms: _455  and  _456
REMARK  191  A    between atoms: _462  and  _464
REMARK  192  A    between atoms: _464  and  _465
REMARK  193  A    between atoms: _464  and  _467
REMARK  194  A    between atoms: _467  and  _468
REMARK  195  A    between atoms: _471  and  _473
REMARK  196  A    between atoms: _473  and  _474
REMARK  197  A    between atoms: _473  and  _476
REMARK  198  A    between atoms: _476  and  _477
REMARK  199  A    between atoms: _482  and  _483
REMARK  200  A    between atoms: _485  and  _487
REMARK  201  A    between atoms: _487  and  _488
REMARK  202  A    between atoms: _487  and  _490
REMARK  203  A    between atoms: _490  and  _491
REMARK  204  A    between atoms: _494  and  _496
REMARK  205  A    between atoms: _496  and  _497
REMARK  206  A    between atoms: _496  and  _499
REMARK  207  A    between atoms: _499  and  _500
REMARK  208  A    between atoms: _500  and  _501
REMARK  209  A    between atoms: _501  and  _502
REMARK  210  A    between atoms: _511  and  _513
REMARK  211  A    between atoms: _513  and  _514
REMARK  212  A    between atoms: _513  and  _516
REMARK  213  A    between atoms: _516  and  _517
REMARK  214  A    between atoms: _520  and  _522
REMARK  215  A    between atoms: _522  and  _523
REMARK  216  A    between atoms: _522  and  _525
REMARK  217  A    between atoms: _525  and  _526
REMARK  218  A    between atoms: _529  and  _531
REMARK  219  A    between atoms: _531  and  _532
REMARK  220  A    between atoms: _531  and  _534
REMARK  221  A    between atoms: _534  and  _535
REMARK  222  A    between atoms: _535  and  _536
REMARK  223  A    between atoms: _536  and  _537
REMARK  224  A    between atoms: _537  and  _538
REMARK  225  A    between atoms: _542  and  _544
REMARK  226  A    between atoms: _544  and  _545
REMARK  227  A    between atoms: _547  and  _549
REMARK  228  A    between atoms: _549  and  _550
REMARK  229  A    between atoms: _549  and  _552
REMARK                            x       y       z     vdW  Elec       q    Type
REMARK                         _______ _______ _______ _____ _____    ______ ____
ROOT
ATOM      1  CA  ILE A   5       3.142  22.275   7.695  0.00  0.00    +0.149 C 
ENDROOT
BRANCH   1   2
ATOM      2  C   ILE A   5       1.913  22.715   6.903  0.00  0.00    +0.241 C 
ATOM      3  O   ILE A   5       1.437  23.789   7.090  0.00  0.00    -0.273 OA
ATOM      4  N   SER A   6       1.405  21.841   6.064  0.00  0.00    -0.295 N 
ATOM      5  H   SER A   6       1.839  20.899   5.992  0.00  0.00    +0.150 HD
BRANCH   4   6
ATOM      6  CA  SER A   6       0.270  22.148   5.245  0.00  0.00    +0.178 C 
BRANCH   6   7
ATOM      7  C   SER A   6      -0.968  22.330   6.133  0.00  0.00    +0.243 C 
ATOM      8  N   ALA A   7      -1.084  21.629   7.266  0.00  0.00    -0.297 N 
ATOM      9  H   ALA A   7      -0.405  20.872   7.484  0.00  0.00    +0.150 HD
ATOM     10  O   SER A   6      -1.790  23.174   5.781  0.00  0.00    -0.273 OA
BRANCH   8  11
ATOM     11  CA  ALA A   7      -2.192  21.938   8.216  0.00  0.00    +0.149 C 
ATOM     12  CB  ALA A   7      -2.284  20.885   9.325  0.00  0.00    +0.031 C 
BRANCH  11  13
ATOM     13  C   ALA A   7      -2.119  23.372   8.722  0.00  0.00    +0.241 C 
ATOM     14  N   ILE A   8      -0.886  23.835   9.023  0.00  0.00    -0.297 N 
ATOM     15  H   ILE A   8      -0.061  23.229   8.840  0.00  0.00    +0.150 HD
ATOM     16  O   ALA A   7      -3.139  24.116   8.728  0.00  0.00    -0.273 OA
BRANCH  14  17
ATOM     17  CA  ILE A   8      -0.680  25.155   9.595  0.00  0.00    +0.149 C 
BRANCH  17  18
ATOM     18  C   ILE A   8      -0.898  26.221   8.550  0.00  0.00    +0.241 C 
ATOM     19  O   ILE A   8      -1.546  27.251   8.811  0.00  0.00    -0.273 OA
ATOM     20  N   THR A   9      -0.343  25.994   7.350  0.00  0.00    -0.296 N 
ATOM     21  H   THR A   9       0.174  25.108   7.176  0.00  0.00    +0.150 HD
BRANCH  20  22
ATOM     22  CA  THR A   9      -0.465  27.000   6.277  0.00  0.00    +0.164 C 
BRANCH  22  23
ATOM     23  CB  THR A   9       0.625  26.868   5.223  0.00  0.00    +0.136 C 
ATOM     24  CG2 THR A   9       1.974  26.927   5.920  0.00  0.00    +0.034 C 
BRANCH  23  25
ATOM     25  OG1 THR A   9       0.466  25.674   4.431  0.00  0.00    -0.382 OA
ATOM     26  HG1 THR A   9       1.192  25.626   3.760  0.00  0.00    +0.210 HD
ENDBRANCH  23  25
ENDBRANCH  22  23
BRANCH  22  27
ATOM     27  C   THR A   9      -1.864  27.055   5.646  0.00  0.00    +0.229 C 
ATOM     28  O   THR A   9      -2.358  28.125   5.343  0.00  0.00    -0.286 OA
ENDBRANCH  22  27
ENDBRANCH  20  22
ENDBRANCH  17  18
BRANCH  17  29
ATOM     29  CB  ILE A   8       0.798  25.256  10.124  0.00  0.00    +0.027 C 
ATOM     30  CG2 ILE A   8       1.153  26.674  10.520  0.00  0.00    +0.002 C 
BRANCH  29  31
ATOM     31  CG1 ILE A   8       0.892  24.348  11.336  0.00  0.00    +0.002 C 
ATOM     32  CD1 ILE A   8       2.290  23.939  11.707  0.00  0.00    +0.000 C 
ENDBRANCH  29  31
ENDBRANCH  17  29
ENDBRANCH  14  17
ENDBRANCH  11  13
ENDBRANCH   8  11
ENDBRANCH   6   7
BRANCH   6  33
ATOM     33  CB  SER A   6       0.039  21.086   4.177  0.00  0.00    +0.166 C 
BRANCH  33  34
ATOM     34  OG  SER A   6      -0.923  21.591   3.219  0.00  0.00    -0.380 OA
ATOM     35  H   SER A   6      -0.570  22.416   2.802  0.00  0.00    +0.211 HD
ENDBRANCH  33  34
ENDBRANCH   6  33
ENDBRANCH   4   6
ENDBRANCH   1   2
BRANCH   1  38
ATOM     36  C   GLY A   4       1.951  20.682   9.029  0.00  0.00    +0.243 C 
ATOM     37  O   GLY A   4       1.120  21.530   9.303  0.00  0.00    -0.273 OA
ATOM     38  N   ILE A   5       2.982  20.960   8.236  0.00  0.00    -0.297 N 
ATOM     39  H   ILE A   5       3.675  20.219   8.008  0.00  0.00    +0.150 HD
BRANCH  36  40
ATOM     40  CA  GLY A   4       1.801  19.231   9.462  0.00  0.00    +0.176 C 
BRANCH  40  42
ATOM     41  C   SER A   3       1.346  18.348   7.241  0.00  0.00    +0.243 C 
ATOM     42  N   GLY A   4       2.063  18.282   8.349  0.00  0.00    -0.295 N 
ATOM     43  H   GLY A   4       2.811  17.566   8.442  0.00  0.00    +0.150 HD
ATOM     44  O   SER A   3       0.328  19.135   7.086  0.00  0.00    -0.273 OA
BRANCH  41  45
ATOM     45  CA  SER A   3       1.794  17.429   6.141  0.00  0.00    +0.178 C 
BRANCH  45  47
ATOM     46  C   ALA A   2       0.793  16.375   4.161  0.00  0.00    +0.241 C 
ATOM     47  N   SER A   3       0.726  17.301   5.109  0.00  0.00    -0.295 N 
ATOM     48  H   SER A   3      -0.087  17.950   5.132  0.00  0.00    +0.150 HD
ATOM     49  O   ALA A   2       1.724  15.551   4.067  0.00  0.00    -0.273 OA
BRANCH  46  50
ATOM     50  CA  ALA A   2      -0.287  16.412   3.150  0.00  0.00    +0.149 C 
ATOM     51  CB  ALA A   2       0.227  17.132   1.905  0.00  0.00    +0.031 C 
BRANCH  50  54
ATOM     52  C   THR A   1      -2.232  16.593   4.652  0.00  0.00    +0.241 C 
ATOM     53  O   THR A   1      -1.933  15.618   5.360  0.00  0.00    -0.274 OA
ATOM     54  N   ALA A   2      -1.503  17.088   3.680  0.00  0.00    -0.297 N 
ATOM     55  H   ALA A   2      -1.788  17.996   3.260  0.00  0.00    +0.150 HD
BRANCH  52  56
ATOM     56  CA  THR A   1      -3.501  17.404   4.937  0.00  0.00    +0.172 C 
BRANCH  56  57
ATOM     57  N   THR A   1      -4.311  16.711   5.876  0.00  0.00    -0.236 NA
ATOM     58  H   THR A   1      -3.884  16.217   6.685  0.00  0.00    +0.142 HD
ENDBRANCH  56  57
BRANCH  56  59
ATOM     59  CB  THR A   1      -3.034  18.774   5.486  0.00  0.00    +0.135 C 
ATOM     60  CG2 THR A   1      -4.184  19.661   5.817  0.00  0.00    +0.034 C 
BRANCH  59  61
ATOM     61  OG1 THR A   1      -2.246  18.587   6.676  0.00  0.00    -0.383 OA
ATOM     62  HG1 THR A   1      -1.453  18.035   6.462  0.00  0.00    +0.210 HD
ENDBRANCH  59  61
ENDBRANCH  56  59
ENDBRANCH  52  56
ENDBRANCH  50  54
ENDBRANCH  46  50
ENDBRANCH  45  47
BRANCH  45  63
ATOM     63  CB  SER A   3       3.047  18.027   5.515  0.00  0.00    +0.166 C 
BRANCH  63  64
ATOM     64  OG  SER A   3       2.915  19.389   5.085  0.00  0.00    -0.380 OA
ATOM     65  H   SER A   3       2.199  19.451   4.405  0.00  0.00    +0.211 HD
ENDBRANCH  63  64
ENDBRANCH  45  63
ENDBRANCH  41  45
ENDBRANCH  40  42
ENDBRANCH  36  40
ENDBRANCH   1  38
BRANCH   1  66
ATOM     66  CB  ILE A   5       4.416  22.444   6.836  0.00  0.00    +0.027 C 
ATOM     67  CG2 ILE A   5       4.368  23.733   6.046  0.00  0.00    +0.002 C 
BRANCH  66  68
ATOM     68  CG1 ILE A   5       5.618  22.418   7.769  0.00  0.00    +0.002 C 
ATOM     69  CD1 ILE A   5       5.604  23.532   8.804  0.00  0.00    +0.000 C 
ENDBRANCH  66  68
ENDBRANCH   1  66
TORSDOF 30
REMARK  Name = ../refined-set-2016/4oma/4oma_pocket.pdb
REMARK  229 active torsions:
REMARK  status: ('A' for Active; 'I' for Inactive)
REMARK    1  A    between atoms: _1  and  _3
REMARK    2  A    between atoms: _3  and  _4
REMARK    3  A    between atoms: _3  and  _6
REMARK    4  A    between atoms: _6  and  _7
REMARK    5  A    between atoms: _10  and  _12
REMARK    6  A    between atoms: _12  and  _13
REMARK    7  A    between atoms: _16  and  _18
REMARK    8  A    between atoms: _18  and  _19
REMARK    9  A    between atoms: _18  and  _21
REMARK   10  A    between atoms: _21  and  _22
REMARK   11  A    between atoms: _24  and  _26
REMARK   12  A    between atoms: _26  and  _27
REMARK   13  A    between atoms: _29  and  _31
REMARK   14  A    between atoms: _31  and  _32
REMARK   15  A    between atoms: _31  and  _34
REMARK   16  A    between atoms: _34  and  _35
REMARK   17  A    between atoms: _38  and  _40
REMARK   18  A    between atoms: _40  and  _41
REMARK   19  A    between atoms: _40  and  _43
REMARK   20  A    between atoms: _43  and  _44
REMARK   21  A    between atoms: _46  and  _48
REMARK   22  A    between atoms: _48  and  _49
REMARK   23  A    between atoms: _52  and  _54
REMARK   24  A    between atoms: _54  and  _55
REMARK   25  A    between atoms: _54  and  _57
REMARK   26  A    between atoms: _57  and  _58
REMARK   27  A    between atoms: _61  and  _63
REMARK   28  A    between atoms: _63  and  _64
REMARK   29  A    between atoms: _63  and  _66
REMARK   30  A    between atoms: _66  and  _67
REMARK   31  A    between atoms: _70  and  _72
REMARK   32  A    between atoms: _72  and  _73
REMARK   33  A    between atoms: _76  and  _78
REMARK   34  A    between atoms: _78  and  _79
REMARK   35  A    between atoms: _78  and  _81
REMARK   36  A    between atoms: _81  and  _82
REMARK   37  A    between atoms: _85  and  _87
REMARK   38  A    between atoms: _87  and  _88
REMARK   39  A    between atoms: _87  and  _90
REMARK   40  A    between atoms: _90  and  _91
REMARK   41  A    between atoms: _96  and  _97
REMARK   42  A    between atoms: _99  and  _101
REMARK   43  A    between atoms: _101  and  _102
REMARK   44  A    between atoms: _104  and  _106
REMARK   45  A    between atoms: _106  and  _107
REMARK   46  A    between atoms: _106  and  _109
REMARK   47  A    between atoms: _111  and  _113
REMARK   48  A    between atoms: _113  and  _114
REMARK   49  A    between atoms: _113  and  _116
REMARK   50  A    between atoms: _116  and  _117
REMARK   51  A    between atoms: _120  and  _122
REMARK   52  A    between atoms: _122  and  _123
REMARK   53  A    between atoms: _122  and  _125
REMARK   54  A    between atoms: _125  and  _126
REMARK   55  A    between atoms: _131  and  _132
REMARK   56  A    between atoms: _134  and  _136
REMARK   57  A    between atoms: _136  and  _137
REMARK   58  A    between atoms: _136  and  _139
REMARK   59  A    between atoms: _139  and  _140
REMARK   60  A    between atoms: _143  and  _145
REMARK   61  A    between atoms: _145  and  _146
REMARK   62  A    between atoms: _145  and  _148
REMARK   63  A    between atoms: _148  and  _149
REMARK   64  A    between atoms: _149  and  _150
REMARK   65  A    between atoms: _153  and  _155
REMARK   66  A    between atoms: _155  and  _156
REMARK   67  A    between atoms: _155  and  _158
REMARK   68  A    between atoms: _158  and  _159
REMARK   69  A    between atoms: _163  and  _164
REMARK   70  A    between atoms: _169  and  _171
REMARK   71  A    between atoms: _171  and  _172
REMARK   72  A    between atoms: _175  and  _177
REMARK   73  A    between atoms: _177  and  _178
REMARK   74  A    between atoms: _177  and  _180
REMARK   75  A    between atoms: _180  and  _181
REMARK   76  A    between atoms: _186  and  _188
REMARK   77  A    between atoms: _188  and  _189
REMARK   78  A    between atoms: _188  and  _191
REMARK   79  A    between atoms: _191  and  _192
REMARK   80  A    between atoms: _195  and  _197
REMARK   81  A    between atoms: _197  and  _198
REMARK   82  A    between atoms: _197  and  _200
REMARK   83  A    between atoms: _200  and  _201
REMARK   84  A    between atoms: _206  and  _208
REMARK   85  A    between atoms: _208  and  _209
REMARK   86  A    between atoms: _208  and  _211
REMARK   87  A    between atoms: _211  and  _212
REMARK   88  A    between atoms: _215  and  _217
REMARK   89  A    between atoms: _217  and  _218
REMARK   90  A    between atoms: _217  and  _220
REMARK   91  A    between atoms: _220  and  _221
REMARK   92  A    between atoms: _227  and  _229
REMARK   93  A    between atoms: _229  and  _230
REMARK   94  A    between atoms: _229  and  _232
REMARK   95  A    between atoms: _232  and  _233
REMARK   96  A    between atoms: _233  and  _234
REMARK   97  A    between atoms: _236  and  _238
REMARK   98  A    between atoms: _238  and  _239
REMARK   99  A    between atoms: _238  and  _241
REMARK  100  A    between atoms: _244  and  _246
REMARK  101  A    between atoms: _246  and  _247
REMARK  102  A    between atoms: _246  and  _249
REMARK  103  A    between atoms: _249  and  _250
REMARK  104  A    between atoms: _255  and  _257
REMARK  105  A    between atoms: _257  and  _258
REMARK  106  A    between atoms: _257  and  _260
REMARK  107  A    between atoms: _260  and  _261
REMARK  108  A    between atoms: _263  and  _265
REMARK  109  A    between atoms: _265  and  _266
REMARK  110  A    between atoms: _265  and  _268
REMARK  111  A    between atoms: _271  and  _273
REMARK  112  A    between atoms: _273  and  _274
REMARK  113  A    between atoms: _273  and  _276
REMARK  114  A    between atoms: _276  and  _277
REMARK  115  A    between atoms: _280  and  _282
REMARK  116  A    between atoms: _282  and  _283
REMARK  117  A    between atoms: _282  and  _285
REMARK  118  A    between atoms: _285  and  _286
REMARK  119  A    between atoms: _286  and  _287
REMARK  120  A    between atoms: _287  and  _288
REMARK  121  A    between atoms: _288  and  _289
REMARK  122  A    between atoms: _293  and  _295
REMARK  123  A    between atoms: _295  and  _296
REMARK  124  A    between atoms: _295  and  _298
REMARK  125  A    between atoms: _301  and  _303
REMARK  126  A    between atoms: _303  and  _304
REMARK  127  A    between atoms: _303  and  _306
REMARK  128  A    between atoms: _306  and  _307
REMARK  129  A    between atoms: _310  and  _312
REMARK  130  A    between atoms: _312  and  _313
REMARK  131  A    between atoms: _315  and  _317
REMARK  132  A    between atoms: _317  and  _318
REMARK  133  A    between atoms: _320  and  _322
REMARK  134  A    between atoms: _322  and  _323
REMARK  135  A    between atoms: _322  and  _325
REMARK  136  A    between atoms: _325  and  _326
REMARK  137  A    between atoms: _329  and  _331
REMARK  138  A    between atoms: _331  and  _332
REMARK  139  A    between atoms: _331  and  _334
REMARK  140  A    between atoms: _334  and  _335
REMARK  141  A    between atoms: _338  and  _340
REMARK  142  A    between atoms: _340  and  _341
REMARK  143  A    between atoms: _344  and  _346
REMARK  144  A    between atoms: _346  and  _347
REMARK  145  A    between atoms: _346  and  _349
REMARK  146  A    between atoms: _352  and  _354
REMARK  147  A    between atoms: _354  and  _355
REMARK  148  A    between atoms: _354  and  _357
REMARK  149  A    between atoms: _357  and  _358
REMARK  150  A    between atoms: _360  and  _362
REMARK  151  A    between atoms: _362  and  _363
REMARK  152  A    between atoms: _362  and  _365
REMARK  153  A    between atoms: _365  and  _366
REMARK  154  A    between atoms: _369  and  _371
REMARK  155  A    between atoms: _371  and  _372
REMARK  156  A    between atoms: _374  and  _376
REMARK  157  A    between atoms: _376  and  _377
REMARK  158  A    between atoms: _376  and  _379
REMARK  159  A    between atoms: _379  and  _380
REMARK  160  A    between atoms: _383  and  _385
REMARK  161  A    between atoms: _385  and  _386
REMARK  162  A    between atoms: _385  and  _388
REMARK  163  A    between atoms: _388  and  _389
REMARK  164  A    between atoms: _389  and  _390
REMARK  165  A    between atoms: _395  and  _397
REMARK  166  A    between atoms: _397  and  _398
REMARK  167  A    between atoms: _397  and  _400
REMARK  168  A    between atoms: _400  and  _401
REMARK  169  A    between atoms: _404  and  _406
REMARK  170  A    between atoms: _406  and  _407
REMARK  171  A    between atoms: _406  and  _409
REMARK  172  A    between atoms: _409  and  _410
REMARK  173  A    between atoms: _410  and  _411
REMARK  174  A    between atoms: _411  and  _412
REMARK  175  A    between atoms: _421  and  _423
REMARK  176  A    between atoms: _423  and  _424
REMARK  177  A    between atoms: _423  and  _426
REMARK  178  A    between atoms: _426  and  _427
REMARK  179  A    between atoms: _429  and  _431
REMARK  180  A    between atoms: _431  and  _432
REMARK  181  A    between atoms: _431  and  _434
REMARK  182  A    between atoms: _434  and  _435
REMARK  183  A    between atoms: _438  and  _440
REMARK  184  A    between atoms: _440  and  _441
REMARK  185  A    between atoms: _440  and  _443
REMARK  186  A    between atoms: _443  and  _444
REMARK  187  A    between atoms: _450  and  _452
REMARK  188  A    between atoms: _452  and  _453
REMARK  189  A    between atoms: _452  and  _455
REMARK  190  A    between atoms: _455  and  _456
REMARK  191  A    between atoms: _462  and  _464
REMARK  192  A    between atoms: _464  and  _465
REMARK  193  A    between atoms: _464  and  _467
REMARK  194  A    between atoms: _467  and  _468
REMARK  195  A    between atoms: _471  and  _473
REMARK  196  A    between atoms: _473  and  _474
REMARK  197  A    between atoms: _473  and  _476
REMARK  198  A    between atoms: _476  and  _477
REMARK  199  A    between atoms: _482  and  _483
REMARK  200  A    between atoms: _485  and  _487
REMARK  201  A    between atoms: _487  and  _488
REMARK  202  A    between atoms: _487  and  _490
REMARK  203  A    between atoms: _490  and  _491
REMARK  204  A    between atoms: _494  and  _496
REMARK  205  A    between atoms: _496  and  _497
REMARK  206  A    between atoms: _496  and  _499
REMARK  207  A    between atoms: _499  and  _500
REMARK  208  A    between atoms: _500  and  _501
REMARK  209  A    between atoms: _501  and  _502
REMARK  210  A    between atoms: _511  and  _513
REMARK  211  A    between atoms: _513  and  _514
REMARK  212  A    between atoms: _513  and  _516
REMARK  213  A    between atoms: _516  and  _517
REMARK  214  A    between atoms: _520  and  _522
REMARK  215  A    between atoms: _522  and  _523
REMARK  216  A    between atoms: _522  and  _525
REMARK  217  A    between atoms: _525  and  _526
REMARK  218  A    between atoms: _529  and  _531
REMARK  219  A    between atoms: _531  and  _532
REMARK  220  A    between atoms: _531  and  _534
REMARK  221  A    between atoms: _534  and  _535
REMARK  222  A    between atoms: _535  and  _536
REMARK  223  A    between atoms: _536  and  _537
REMARK  224  A    between atoms: _537  and  _538
REMARK  225  A    between atoms: _542  and  _544
REMARK  226  A    between atoms: _544  and  _545
REMARK  227  A    between atoms: _547  and  _549
REMARK  228  A    between atoms: _549  and  _550
REMARK  229  A    between atoms: _549  and  _552
REMARK                            x       y       z     vdW  Elec       q    Type
REMARK                         _______ _______ _______ _____ _____    ______ ____
ROOT
ATOM      1  CA  TYR A   3       8.928  24.466  15.188  0.00  0.00    +0.153 C 
ENDROOT
BRANCH   1   4
ATOM      2  C   ILE A   2       8.846  26.347  16.779  0.00  0.00    +0.241 C 
ATOM      3  O   ILE A   2      10.059  26.713  16.642  0.00  0.00    -0.273 OA
ATOM      4  N   TYR A   3       8.274  25.298  16.180  0.00  0.00    -0.297 N 
ATOM      5  H   TYR A   3       7.296  25.063  16.442  0.00  0.00    +0.150 HD
BRANCH   2   6
ATOM      6  CA  ILE A   2       7.889  27.109  17.695  0.00  0.00    +0.148 C 
BRANCH   6   9
ATOM      7  C   ALA A   1       8.386  28.033  19.907  0.00  0.00    +0.238 C 
ATOM      8  O   ALA A   1       7.549  27.386  20.504  0.00  0.00    -0.274 OA
ATOM      9  N   ILE A   2       8.603  27.982  18.597  0.00  0.00    -0.297 N 
ATOM     10  H   ILE A   2       9.331  28.608  18.197  0.00  0.00    +0.150 HD
BRANCH   7  11
ATOM     11  CA  ALA A   1       9.272  28.980  20.630  0.00  0.00    +0.145 C 
ATOM     12  CB  ALA A   1       9.282  28.667  22.097  0.00  0.00    +0.028 C 
BRANCH  11  13
ATOM     13  N   ALA A   1       8.839  30.354  20.393  0.00  0.00    -0.238 NA
ATOM     14  H   ALA A   1       8.246  30.820  21.109  0.00  0.00    +0.142 HD
ENDBRANCH  11  13
ENDBRANCH   7  11
ENDBRANCH   6   9
BRANCH   6  15
ATOM     15  CB  ILE A   2       6.868  27.896  16.867  0.00  0.00    +0.027 C 
ATOM     16  CG2 ILE A   2       5.809  28.429  17.801  0.00  0.00    +0.002 C 
BRANCH  15  17
ATOM     17  CG1 ILE A   2       7.544  29.042  16.138  0.00  0.00    +0.002 C 
ATOM     18  CD1 ILE A   2       6.707  29.721  15.099  0.00  0.00    +0.000 C 
ENDBRANCH  15  17
ENDBRANCH   6  15
ENDBRANCH   2   6
ENDBRANCH   1   4
BRANCH   1  19
ATOM     19  C   TYR A   3       9.586  25.327  14.097  0.00  0.00    +0.241 C 
ATOM     20  N   GLY A   4      10.820  24.943  13.745  0.00  0.00    -0.295 N 
ATOM     21  H   GLY A   4      11.201  24.050  14.118  0.00  0.00    +0.150 HD
ATOM     22  O   TYR A   3       9.028  26.299  13.625  0.00  0.00    -0.273 OA
BRANCH  20  23
ATOM     23  CA  GLY A   4      11.626  25.735  12.867  0.00  0.00    +0.176 C 
BRANCH  23  24
ATOM     24  C   GLY A   4      10.990  26.095  11.550  0.00  0.00    +0.243 C 
ATOM     25  O   GLY A   4      11.069  27.241  11.142  0.00  0.00    -0.273 OA
ATOM     26  N   CYS A   5      10.380  25.115  10.877  0.00  0.00    -0.296 N 
ATOM     27  H   CYS A   5      10.314  24.164  11.292  0.00  0.00    +0.150 HD
BRANCH  26  28
ATOM     28  CA  CYS A   5       9.802  25.377   9.553  0.00  0.00    +0.160 C 
BRANCH  28  29
ATOM     29  C   CYS A   5       8.593  26.279   9.678  0.00  0.00    +0.242 C 
ATOM     30  N   THR A   6       7.810  26.120  10.747  0.00  0.00    -0.296 N 
ATOM     31  H   THR A   6       7.958  25.307  11.378  0.00  0.00    +0.150 HD
ATOM     32  O   CYS A   5       8.392  27.145   8.806  0.00  0.00    -0.273 OA
BRANCH  30  33
ATOM     33  CA  THR A   6       6.729  27.095  11.042  0.00  0.00    +0.164 C 
BRANCH  33  34
ATOM     34  C   THR A   6       7.262  28.503  11.206  0.00  0.00    +0.229 C 
ATOM     35  O   THR A   6       6.743  29.447  10.609  0.00  0.00    -0.286 OA
ENDBRANCH  33  34
BRANCH  33  36
ATOM     36  CB  THR A   6       5.943  26.698  12.267  0.00  0.00    +0.136 C 
ATOM     37  CG2 THR A   6       4.734  27.592  12.385  0.00  0.00    +0.034 C 
BRANCH  36  38
ATOM     38  OG1 THR A   6       5.542  25.319  12.139  0.00  0.00    -0.382 OA
ATOM     39  HG1 THR A   6       5.025  25.051  12.940  0.00  0.00    +0.210 HD
ENDBRANCH  36  38
ENDBRANCH  33  36
ENDBRANCH  30  33
ENDBRANCH  28  29
BRANCH  28  40
ATOM     40  CB  CYS A   5       9.514  24.089   8.750  0.00  0.00    +0.098 C 
ATOM     41  SG  CYS A   5      11.059  23.125   8.496  0.00  0.00    -0.080 S 
ENDBRANCH  28  40
ENDBRANCH  26  28
ENDBRANCH  23  24
ENDBRANCH  20  23
ENDBRANCH   1  19
BRANCH   1  42
ATOM     42  CB  TYR A   3       7.958  23.438  14.597  0.00  0.00    +0.055 C 
BRANCH  42  43
ATOM     43  CG  TYR A   3       8.559  22.637  13.472  0.00  0.00    -0.020 A 
ATOM     44  CD2 TYR A   3       9.722  21.877  13.663  0.00  0.00    -0.001 A 
ATOM     45  CE2 TYR A   3      10.277  21.174  12.626  0.00  0.00    +0.036 A 
ATOM     46  CZ  TYR A   3       9.678  21.206  11.365  0.00  0.00    +0.134 A 
ATOM     47  CE1 TYR A   3       8.543  21.952  11.158  0.00  0.00    +0.036 A 
ATOM     48  CD1 TYR A   3       7.986  22.663  12.206  0.00  0.00    -0.001 A 
BRANCH  46  49
ATOM     49  OH  TYR A   3      10.171  20.516  10.285  0.00  0.00    -0.506 OA
ATOM     50  HH  TYR A   3      10.397  21.154   9.563  0.00  0.00    +0.292 HD
ENDBRANCH  46  49
ENDBRANCH  42  43
ENDBRANCH   1  42
TORSDOF 20
REMARK  Name = ../refined-set-2016/4oma/4oma_pocket.pdb
REMARK  229 active torsions:
REMARK  status: ('A' for Active; 'I' for Inactive)
REMARK    1  A    between atoms: _1  and  _3
REMARK    2  A    between atoms: _3  and  _4
REMARK    3  A    between atoms: _3  and  _6
REMARK    4  A    between atoms: _6  and  _7
REMARK    5  A    between atoms: _10  and  _12
REMARK    6  A    between atoms: _12  and  _13
REMARK    7  A    between atoms: _16  and  _18
REMARK    8  A    between atoms: _18  and  _19
REMARK    9  A    between atoms: _18  and  _21
REMARK   10  A    between atoms: _21  and  _22
REMARK   11  A    between atoms: _24  and  _26
REMARK   12  A    between atoms: _26  and  _27
REMARK   13  A    between atoms: _29  and  _31
REMARK   14  A    between atoms: _31  and  _32
REMARK   15  A    between atoms: _31  and  _34
REMARK   16  A    between atoms: _34  and  _35
REMARK   17  A    between atoms: _38  and  _40
REMARK   18  A    between atoms: _40  and  _41
REMARK   19  A    between atoms: _40  and  _43
REMARK   20  A    between atoms: _43  and  _44
REMARK   21  A    between atoms: _46  and  _48
REMARK   22  A    between atoms: _48  and  _49
REMARK   23  A    between atoms: _52  and  _54
REMARK   24  A    between atoms: _54  and  _55
REMARK   25  A    between atoms: _54  and  _57
REMARK   26  A    between atoms: _57  and  _58
REMARK   27  A    between atoms: _61  and  _63
REMARK   28  A    between atoms: _63  and  _64
REMARK   29  A    between atoms: _63  and  _66
REMARK   30  A    between atoms: _66  and  _67
REMARK   31  A    between atoms: _70  and  _72
REMARK   32  A    between atoms: _72  and  _73
REMARK   33  A    between atoms: _76  and  _78
REMARK   34  A    between atoms: _78  and  _79
REMARK   35  A    between atoms: _78  and  _81
REMARK   36  A    between atoms: _81  and  _82
REMARK   37  A    between atoms: _85  and  _87
REMARK   38  A    between atoms: _87  and  _88
REMARK   39  A    between atoms: _87  and  _90
REMARK   40  A    between atoms: _90  and  _91
REMARK   41  A    between atoms: _96  and  _97
REMARK   42  A    between atoms: _99  and  _101
REMARK   43  A    between atoms: _101  and  _102
REMARK   44  A    between atoms: _104  and  _106
REMARK   45  A    between atoms: _106  and  _107
REMARK   46  A    between atoms: _106  and  _109
REMARK   47  A    between atoms: _111  and  _113
REMARK   48  A    between atoms: _113  and  _114
REMARK   49  A    between atoms: _113  and  _116
REMARK   50  A    between atoms: _116  and  _117
REMARK   51  A    between atoms: _120  and  _122
REMARK   52  A    between atoms: _122  and  _123
REMARK   53  A    between atoms: _122  and  _125
REMARK   54  A    between atoms: _125  and  _126
REMARK   55  A    between atoms: _131  and  _132
REMARK   56  A    between atoms: _134  and  _136
REMARK   57  A    between atoms: _136  and  _137
REMARK   58  A    between atoms: _136  and  _139
REMARK   59  A    between atoms: _139  and  _140
REMARK   60  A    between atoms: _143  and  _145
REMARK   61  A    between atoms: _145  and  _146
REMARK   62  A    between atoms: _145  and  _148
REMARK   63  A    between atoms: _148  and  _149
REMARK   64  A    between atoms: _149  and  _150
REMARK   65  A    between atoms: _153  and  _155
REMARK   66  A    between atoms: _155  and  _156
REMARK   67  A    between atoms: _155  and  _158
REMARK   68  A    between atoms: _158  and  _159
REMARK   69  A    between atoms: _163  and  _164
REMARK   70  A    between atoms: _169  and  _171
REMARK   71  A    between atoms: _171  and  _172
REMARK   72  A    between atoms: _175  and  _177
REMARK   73  A    between atoms: _177  and  _178
REMARK   74  A    between atoms: _177  and  _180
REMARK   75  A    between atoms: _180  and  _181
REMARK   76  A    between atoms: _186  and  _188
REMARK   77  A    between atoms: _188  and  _189
REMARK   78  A    between atoms: _188  and  _191
REMARK   79  A    between atoms: _191  and  _192
REMARK   80  A    between atoms: _195  and  _197
REMARK   81  A    between atoms: _197  and  _198
REMARK   82  A    between atoms: _197  and  _200
REMARK   83  A    between atoms: _200  and  _201
REMARK   84  A    between atoms: _206  and  _208
REMARK   85  A    between atoms: _208  and  _209
REMARK   86  A    between atoms: _208  and  _211
REMARK   87  A    between atoms: _211  and  _212
REMARK   88  A    between atoms: _215  and  _217
REMARK   89  A    between atoms: _217  and  _218
REMARK   90  A    between atoms: _217  and  _220
REMARK   91  A    between atoms: _220  and  _221
REMARK   92  A    between atoms: _227  and  _229
REMARK   93  A    between atoms: _229  and  _230
REMARK   94  A    between atoms: _229  and  _232
REMARK   95  A    between atoms: _232  and  _233
REMARK   96  A    between atoms: _233  and  _234
REMARK   97  A    between atoms: _236  and  _238
REMARK   98  A    between atoms: _238  and  _239
REMARK   99  A    between atoms: _238  and  _241
REMARK  100  A    between atoms: _244  and  _246
REMARK  101  A    between atoms: _246  and  _247
REMARK  102  A    between atoms: _246  and  _249
REMARK  103  A    between atoms: _249  and  _250
REMARK  104  A    between atoms: _255  and  _257
REMARK  105  A    between atoms: _257  and  _258
REMARK  106  A    between atoms: _257  and  _260
REMARK  107  A    between atoms: _260  and  _261
REMARK  108  A    between atoms: _263  and  _265
REMARK  109  A    between atoms: _265  and  _266
REMARK  110  A    between atoms: _265  and  _268
REMARK  111  A    between atoms: _271  and  _273
REMARK  112  A    between atoms: _273  and  _274
REMARK  113  A    between atoms: _273  and  _276
REMARK  114  A    between atoms: _276  and  _277
REMARK  115  A    between atoms: _280  and  _282
REMARK  116  A    between atoms: _282  and  _283
REMARK  117  A    between atoms: _282  and  _285
REMARK  118  A    between atoms: _285  and  _286
REMARK  119  A    between atoms: _286  and  _287
REMARK  120  A    between atoms: _287  and  _288
REMARK  121  A    between atoms: _288  and  _289
REMARK  122  A    between atoms: _293  and  _295
REMARK  123  A    between atoms: _295  and  _296
REMARK  124  A    between atoms: _295  and  _298
REMARK  125  A    between atoms: _301  and  _303
REMARK  126  A    between atoms: _303  and  _304
REMARK  127  A    between atoms: _303  and  _306
REMARK  128  A    between atoms: _306  and  _307
REMARK  129  A    between atoms: _310  and  _312
REMARK  130  A    between atoms: _312  and  _313
REMARK  131  A    between atoms: _315  and  _317
REMARK  132  A    between atoms: _317  and  _318
REMARK  133  A    between atoms: _320  and  _322
REMARK  134  A    between atoms: _322  and  _323
REMARK  135  A    between atoms: _322  and  _325
REMARK  136  A    between atoms: _325  and  _326
REMARK  137  A    between atoms: _329  and  _331
REMARK  138  A    between atoms: _331  and  _332
REMARK  139  A    between atoms: _331  and  _334
REMARK  140  A    between atoms: _334  and  _335
REMARK  141  A    between atoms: _338  and  _340
REMARK  142  A    between atoms: _340  and  _341
REMARK  143  A    between atoms: _344  and  _346
REMARK  144  A    between atoms: _346  and  _347
REMARK  145  A    between atoms: _346  and  _349
REMARK  146  A    between atoms: _352  and  _354
REMARK  147  A    between atoms: _354  and  _355
REMARK  148  A    between atoms: _354  and  _357
REMARK  149  A    between atoms: _357  and  _358
REMARK  150  A    between atoms: _360  and  _362
REMARK  151  A    between atoms: _362  and  _363
REMARK  152  A    between atoms: _362  and  _365
REMARK  153  A    between atoms: _365  and  _366
REMARK  154  A    between atoms: _369  and  _371
REMARK  155  A    between atoms: _371  and  _372
REMARK  156  A    between atoms: _374  and  _376
REMARK  157  A    between atoms: _376  and  _377
REMARK  158  A    between atoms: _376  and  _379
REMARK  159  A    between atoms: _379  and  _380
REMARK  160  A    between atoms: _383  and  _385
REMARK  161  A    between atoms: _385  and  _386
REMARK  162  A    between atoms: _385  and  _388
REMARK  163  A    between atoms: _388  and  _389
REMARK  164  A    between atoms: _389  and  _390
REMARK  165  A    between atoms: _395  and  _397
REMARK  166  A    between atoms: _397  and  _398
REMARK  167  A    between atoms: _397  and  _400
REMARK  168  A    between atoms: _400  and  _401
REMARK  169  A    between atoms: _404  and  _406
REMARK  170  A    between atoms: _406  and  _407
REMARK  171  A    between atoms: _406  and  _409
REMARK  172  A    between atoms: _409  and  _410
REMARK  173  A    between atoms: _410  and  _411
REMARK  174  A    between atoms: _411  and  _412
REMARK  175  A    between atoms: _421  and  _423
REMARK  176  A    between atoms: _423  and  _424
REMARK  177  A    between atoms: _423  and  _426
REMARK  178  A    between atoms: _426  and  _427
REMARK  179  A    between atoms: _429  and  _431
REMARK  180  A    between atoms: _431  and  _432
REMARK  181  A    between atoms: _431  and  _434
REMARK  182  A    between atoms: _434  and  _435
REMARK  183  A    between atoms: _438  and  _440
REMARK  184  A    between atoms: _440  and  _441
REMARK  185  A    between atoms: _440  and  _443
REMARK  186  A    between atoms: _443  and  _444
REMARK  187  A    between atoms: _450  and  _452
REMARK  188  A    between atoms: _452  and  _453
REMARK  189  A    between atoms: _452  and  _455
REMARK  190  A    between atoms: _455  and  _456
REMARK  191  A    between atoms: _462  and  _464
REMARK  192  A    between atoms: _464  and  _465
REMARK  193  A    between atoms: _464  and  _467
REMARK  194  A    between atoms: _467  and  _468
REMARK  195  A    between atoms: _471  and  _473
REMARK  196  A    between atoms: _473  and  _474
REMARK  197  A    between atoms: _473  and  _476
REMARK  198  A    between atoms: _476  and  _477
REMARK  199  A    between atoms: _482  and  _483
REMARK  200  A    between atoms: _485  and  _487
REMARK  201  A    between atoms: _487  and  _488
REMARK  202  A    between atoms: _487  and  _490
REMARK  203  A    between atoms: _490  and  _491
REMARK  204  A    between atoms: _494  and  _496
REMARK  205  A    between atoms: _496  and  _497
REMARK  206  A    between atoms: _496  and  _499
REMARK  207  A    between atoms: _499  and  _500
REMARK  208  A    between atoms: _500  and  _501
REMARK  209  A    between atoms: _501  and  _502
REMARK  210  A    between atoms: _511  and  _513
REMARK  211  A    between atoms: _513  and  _514
REMARK  212  A    between atoms: _513  and  _516
REMARK  213  A    between atoms: _516  and  _517
REMARK  214  A    between atoms: _520  and  _522
REMARK  215  A    between atoms: _522  and  _523
REMARK  216  A    between atoms: _522  and  _525
REMARK  217  A    between atoms: _525  and  _526
REMARK  218  A    between atoms: _529  and  _531
REMARK  219  A    between atoms: _531  and  _532
REMARK  220  A    between atoms: _531  and  _534
REMARK  221  A    between atoms: _534  and  _535
REMARK  222  A    between atoms: _535  and  _536
REMARK  223  A    between atoms: _536  and  _537
REMARK  224  A    between atoms: _537  and  _538
REMARK  225  A    between atoms: _542  and  _544
REMARK  226  A    between atoms: _544  and  _545
REMARK  227  A    between atoms: _547  and  _549
REMARK  228  A    between atoms: _549  and  _550
REMARK  229  A    between atoms: _549  and  _552
REMARK                            x       y       z     vdW  Elec       q    Type
REMARK                         _______ _______ _______ _____ _____    ______ ____
ROOT
ATOM      1  C   GLU A   3       2.913  25.336  22.025  0.00  0.00    +0.241 C 
ATOM      2  O   GLU A   3       3.595  26.169  22.682  0.00  0.00    -0.273 OA
ATOM      3  N   THR A   4       2.423  24.212  22.545  0.00  0.00    -0.295 N 
ATOM      4  H   THR A   4       1.861  23.586  21.934  0.00  0.00    +0.150 HD
ENDROOT
BRANCH   3   5
ATOM      5  CA  THR A   4       2.635  23.828  23.905  0.00  0.00    +0.176 C 
BRANCH   5   6
ATOM      6  C   THR A   4       2.506  22.319  24.147  0.00  0.00    +0.246 C 
ATOM      7  N   PRO A   5       3.539  21.716  24.753  0.00  0.00    -0.272 N 
ATOM      8  CD  PRO A   5       3.440  20.334  25.232  0.00  0.00    +0.094 C 
ATOM      9  CG  PRO A   5       4.570  20.202  26.205  0.00  0.00    +0.024 C 
ATOM     10  CB  PRO A   5       5.606  21.122  25.674  0.00  0.00    +0.031 C 
ATOM     11  CA  PRO A   5       4.874  22.282  25.033  0.00  0.00    +0.152 C 
ATOM     12  O   THR A   4       1.495  21.682  23.799  0.00  0.00    -0.273 OA
BRANCH  11  13
ATOM     13  C   PRO A   5       5.586  22.724  23.774  0.00  0.00    +0.241 C 
ATOM     14  N   ALA A   6       6.592  23.586  23.944  0.00  0.00    -0.297 N 
ATOM     15  H   ALA A   6       6.884  23.829  24.912  0.00  0.00    +0.150 HD
ATOM     16  O   PRO A   5       5.263  22.270  22.675  0.00  0.00    -0.273 OA
BRANCH  14  17
ATOM     17  CA  ALA A   6       7.287  24.191  22.838  0.00  0.00    +0.149 C 
ATOM     18  CB  ALA A   6       7.663  25.602  23.221  0.00  0.00    +0.031 C 
BRANCH  17  19
ATOM     19  C   ALA A   6       8.558  23.387  22.540  0.00  0.00    +0.241 C 
ATOM     20  O   ALA A   6       9.227  22.952  23.455  0.00  0.00    -0.273 OA
ATOM     21  N   ASN A   7       8.857  23.245  21.243  0.00  0.00    -0.298 N 
ATOM     22  H   ASN A   7       8.316  23.820  20.566  0.00  0.00    +0.150 HD
BRANCH  21  23
ATOM     23  CA  ASN A   7       9.909  22.325  20.675  0.00  0.00    +0.146 C 
BRANCH  23  24
ATOM     24  C   ASN A   7      11.392  22.303  21.161  0.00  0.00    +0.227 C 
ATOM     25  O   ASN A   7      12.011  21.221  21.092  0.00  0.00    -0.286 OA
ENDBRANCH  23  24
BRANCH  23  26
ATOM     26  CB  ASN A   7       9.948  22.475  19.153  0.00  0.00    +0.112 C 
BRANCH  26  27
ATOM     27  CG  ASN A   7      10.367  23.877  18.733  0.00  0.00    +0.222 C 
ATOM     28  OD1 ASN A   7       9.964  24.845  19.366  0.00  0.00    -0.275 OA
ATOM     29  ND2 ASN A   7      11.182  23.992  17.677  0.00  0.00    -0.329 N 
ATOM     30 HD21 ASN A   7      11.498  24.932  17.364  0.00  0.00    +0.145 HD
ATOM     31 HD22 ASN A   7      11.499  23.141  17.170  0.00  0.00    +0.145 HD
ENDBRANCH  26  27
ENDBRANCH  23  26
ENDBRANCH  21  23
ENDBRANCH  17  19
ENDBRANCH  14  17
ENDBRANCH  11  13
ENDBRANCH   5   6
BRANCH   5  32
ATOM     32  CB  THR A   4       1.889  24.696  24.910  0.00  0.00    +0.137 C 
ATOM     33  CG2 THR A   4       0.346  24.513  24.777  0.00  0.00    +0.034 C 
BRANCH  32  34
ATOM     34  OG1 THR A   4       2.270  24.342  26.237  0.00  0.00    -0.382 OA
ATOM     35  HG1 THR A   4       2.049  23.391  26.400  0.00  0.00    +0.210 HD
ENDBRANCH  32  34
ENDBRANCH   5  32
ENDBRANCH   3   5
BRANCH   1  36
ATOM     36  CA  GLU A   3       2.669  25.513  20.518  0.00  0.00    +0.149 C 
BRANCH  36  38
ATOM     37  C   ILE A   2       1.235  27.383  19.708  0.00  0.00    +0.241 C 
ATOM     38  N   GLU A   3       2.377  26.910  20.212  0.00  0.00    -0.297 N 
ATOM     39  H   GLU A   3       3.129  27.602  20.405  0.00  0.00    +0.150 HD
ATOM     40  O   ILE A   2       0.432  26.704  19.104  0.00  0.00    -0.273 OA
BRANCH  37  41
ATOM     41  CA  ILE A   2       1.027  28.901  19.872  0.00  0.00    +0.148 C 
BRANCH  41  43
ATOM     42  C   TYR A   1       0.458  30.678  18.257  0.00  0.00    +0.239 C 
ATOM     43  N   ILE A   2       0.188  29.508  18.818  0.00  0.00    -0.297 N 
ATOM     44  H   ILE A   2      -0.657  28.991  18.500  0.00  0.00    +0.150 HD
ATOM     45  O   TYR A   1       1.504  31.362  18.533  0.00  0.00    -0.274 OA
BRANCH  42  46
ATOM     46  CA  TYR A   1      -0.502  31.173  17.210  0.00  0.00    +0.149 C 
BRANCH  46  47
ATOM     47  N   TYR A   1      -0.967  32.491  17.581  0.00  0.00    -0.238 NA
ATOM     48  H   TYR A   1      -0.276  33.250  17.748  0.00  0.00    +0.142 HD
ENDBRANCH  46  47
BRANCH  46  49
ATOM     49  CB  TYR A   1       0.130  31.155  15.789  0.00  0.00    +0.053 C 
BRANCH  49  50
ATOM     50  CG  TYR A   1       0.595  29.774  15.363  0.00  0.00    -0.020 A 
ATOM     51  CD2 TYR A   1       1.924  29.347  15.575  0.00  0.00    -0.001 A 
ATOM     52  CE2 TYR A   1       2.333  28.078  15.261  0.00  0.00    +0.036 A 
ATOM     53  CZ  TYR A   1       1.482  27.202  14.625  0.00  0.00    +0.134 A 
ATOM     54  CE1 TYR A   1       0.140  27.603  14.375  0.00  0.00    +0.036 A 
ATOM     55  CD1 TYR A   1      -0.262  28.887  14.727  0.00  0.00    -0.001 A 
BRANCH  53  56
ATOM     56  OH  TYR A   1       1.861  25.933  14.265  0.00  0.00    -0.506 OA
ATOM     57  HH  TYR A   1       2.627  25.983  13.639  0.00  0.00    +0.292 HD
ENDBRANCH  53  56
ENDBRANCH  49  50
ENDBRANCH  46  49
ENDBRANCH  42  46
ENDBRANCH  41  43
BRANCH  41  58
ATOM     58  CB  ILE A   2       0.523  29.202  21.312  0.00  0.00    +0.027 C 
ATOM     59  CG2 ILE A   2       0.451  30.694  21.537  0.00  0.00    +0.002 C 
BRANCH  58  60
ATOM     60  CG1 ILE A   2      -0.833  28.527  21.544  0.00  0.00    +0.002 C 
ATOM     61  CD1 ILE A   2      -1.370  28.626  22.973  0.00  0.00    +0.000 C 
ENDBRANCH  58  60
ENDBRANCH  41  58
ENDBRANCH  37  41
ENDBRANCH  36  38
BRANCH  36  62
ATOM     62  CB  GLU A   3       3.997  25.056  19.875  0.00  0.00    +0.041 C 
BRANCH  62  63
ATOM     63  CG  GLU A   3       4.000  24.773  18.425  0.00  0.00    +0.116 C 
BRANCH  63  64
ATOM     64  CD  GLU A   3       5.393  24.503  17.899  0.00  0.00    +0.365 C 
ATOM     65  OE2 GLU A   3       6.260  23.921  18.638  0.00  0.00    -0.246 OA
ATOM     66  OE1 GLU A   3       5.597  24.865  16.733  0.00  0.00    -0.246 OA
ENDBRANCH  63  64
ENDBRANCH  62  63
ENDBRANCH  36  62
ENDBRANCH   1  36
TORSDOF 25
REMARK  Name = ../refined-set-2016/4oma/4oma_pocket.pdb
REMARK  229 active torsions:
REMARK  status: ('A' for Active; 'I' for Inactive)
REMARK    1  A    between atoms: _1  and  _3
REMARK    2  A    between atoms: _3  and  _4
REMARK    3  A    between atoms: _3  and  _6
REMARK    4  A    between atoms: _6  and  _7
REMARK    5  A    between atoms: _10  and  _12
REMARK    6  A    between atoms: _12  and  _13
REMARK    7  A    between atoms: _16  and  _18
REMARK    8  A    between atoms: _18  and  _19
REMARK    9  A    between atoms: _18  and  _21
REMARK   10  A    between atoms: _21  and  _22
REMARK   11  A    between atoms: _24  and  _26
REMARK   12  A    between atoms: _26  and  _27
REMARK   13  A    between atoms: _29  and  _31
REMARK   14  A    between atoms: _31  and  _32
REMARK   15  A    between atoms: _31  and  _34
REMARK   16  A    between atoms: _34  and  _35
REMARK   17  A    between atoms: _38  and  _40
REMARK   18  A    between atoms: _40  and  _41
REMARK   19  A    between atoms: _40  and  _43
REMARK   20  A    between atoms: _43  and  _44
REMARK   21  A    between atoms: _46  and  _48
REMARK   22  A    between atoms: _48  and  _49
REMARK   23  A    between atoms: _52  and  _54
REMARK   24  A    between atoms: _54  and  _55
REMARK   25  A    between atoms: _54  and  _57
REMARK   26  A    between atoms: _57  and  _58
REMARK   27  A    between atoms: _61  and  _63
REMARK   28  A    between atoms: _63  and  _64
REMARK   29  A    between atoms: _63  and  _66
REMARK   30  A    between atoms: _66  and  _67
REMARK   31  A    between atoms: _70  and  _72
REMARK   32  A    between atoms: _72  and  _73
REMARK   33  A    between atoms: _76  and  _78
REMARK   34  A    between atoms: _78  and  _79
REMARK   35  A    between atoms: _78  and  _81
REMARK   36  A    between atoms: _81  and  _82
REMARK   37  A    between atoms: _85  and  _87
REMARK   38  A    between atoms: _87  and  _88
REMARK   39  A    between atoms: _87  and  _90
REMARK   40  A    between atoms: _90  and  _91
REMARK   41  A    between atoms: _96  and  _97
REMARK   42  A    between atoms: _99  and  _101
REMARK   43  A    between atoms: _101  and  _102
REMARK   44  A    between atoms: _104  and  _106
REMARK   45  A    between atoms: _106  and  _107
REMARK   46  A    between atoms: _106  and  _109
REMARK   47  A    between atoms: _111  and  _113
REMARK   48  A    between atoms: _113  and  _114
REMARK   49  A    between atoms: _113  and  _116
REMARK   50  A    between atoms: _116  and  _117
REMARK   51  A    between atoms: _120  and  _122
REMARK   52  A    between atoms: _122  and  _123
REMARK   53  A    between atoms: _122  and  _125
REMARK   54  A    between atoms: _125  and  _126
REMARK   55  A    between atoms: _131  and  _132
REMARK   56  A    between atoms: _134  and  _136
REMARK   57  A    between atoms: _136  and  _137
REMARK   58  A    between atoms: _136  and  _139
REMARK   59  A    between atoms: _139  and  _140
REMARK   60  A    between atoms: _143  and  _145
REMARK   61  A    between atoms: _145  and  _146
REMARK   62  A    between atoms: _145  and  _148
REMARK   63  A    between atoms: _148  and  _149
REMARK   64  A    between atoms: _149  and  _150
REMARK   65  A    between atoms: _153  and  _155
REMARK   66  A    between atoms: _155  and  _156
REMARK   67  A    between atoms: _155  and  _158
REMARK   68  A    between atoms: _158  and  _159
REMARK   69  A    between atoms: _163  and  _164
REMARK   70  A    between atoms: _169  and  _171
REMARK   71  A    between atoms: _171  and  _172
REMARK   72  A    between atoms: _175  and  _177
REMARK   73  A    between atoms: _177  and  _178
REMARK   74  A    between atoms: _177  and  _180
REMARK   75  A    between atoms: _180  and  _181
REMARK   76  A    between atoms: _186  and  _188
REMARK   77  A    between atoms: _188  and  _189
REMARK   78  A    between atoms: _188  and  _191
REMARK   79  A    between atoms: _191  and  _192
REMARK   80  A    between atoms: _195  and  _197
REMARK   81  A    between atoms: _197  and  _198
REMARK   82  A    between atoms: _197  and  _200
REMARK   83  A    between atoms: _200  and  _201
REMARK   84  A    between atoms: _206  and  _208
REMARK   85  A    between atoms: _208  and  _209
REMARK   86  A    between atoms: _208  and  _211
REMARK   87  A    between atoms: _211  and  _212
REMARK   88  A    between atoms: _215  and  _217
REMARK   89  A    between atoms: _217  and  _218
REMARK   90  A    between atoms: _217  and  _220
REMARK   91  A    between atoms: _220  and  _221
REMARK   92  A    between atoms: _227  and  _229
REMARK   93  A    between atoms: _229  and  _230
REMARK   94  A    between atoms: _229  and  _232
REMARK   95  A    between atoms: _232  and  _233
REMARK   96  A    between atoms: _233  and  _234
REMARK   97  A    between atoms: _236  and  _238
REMARK   98  A    between atoms: _238  and  _239
REMARK   99  A    between atoms: _238  and  _241
REMARK  100  A    between atoms: _244  and  _246
REMARK  101  A    between atoms: _246  and  _247
REMARK  102  A    between atoms: _246  and  _249
REMARK  103  A    between atoms: _249  and  _250
REMARK  104  A    between atoms: _255  and  _257
REMARK  105  A    between atoms: _257  and  _258
REMARK  106  A    between atoms: _257  and  _260
REMARK  107  A    between atoms: _260  and  _261
REMARK  108  A    between atoms: _263  and  _265
REMARK  109  A    between atoms: _265  and  _266
REMARK  110  A    between atoms: _265  and  _268
REMARK  111  A    between atoms: _271  and  _273
REMARK  112  A    between atoms: _273  and  _274
REMARK  113  A    between atoms: _273  and  _276
REMARK  114  A    between atoms: _276  and  _277
REMARK  115  A    between atoms: _280  and  _282
REMARK  116  A    between atoms: _282  and  _283
REMARK  117  A    between atoms: _282  and  _285
REMARK  118  A    between atoms: _285  and  _286
REMARK  119  A    between atoms: _286  and  _287
REMARK  120  A    between atoms: _287  and  _288
REMARK  121  A    between atoms: _288  and  _289
REMARK  122  A    between atoms: _293  and  _295
REMARK  123  A    between atoms: _295  and  _296
REMARK  124  A    between atoms: _295  and  _298
REMARK  125  A    between atoms: _301  and  _303
REMARK  126  A    between atoms: _303  and  _304
REMARK  127  A    between atoms: _303  and  _306
REMARK  128  A    between atoms: _306  and  _307
REMARK  129  A    between atoms: _310  and  _312
REMARK  130  A    between atoms: _312  and  _313
REMARK  131  A    between atoms: _315  and  _317
REMARK  132  A    between atoms: _317  and  _318
REMARK  133  A    between atoms: _320  and  _322
REMARK  134  A    between atoms: _322  and  _323
REMARK  135  A    between atoms: _322  and  _325
REMARK  136  A    between atoms: _325  and  _326
REMARK  137  A    between atoms: _329  and  _331
REMARK  138  A    between atoms: _331  and  _332
REMARK  139  A    between atoms: _331  and  _334
REMARK  140  A    between atoms: _334  and  _335
REMARK  141  A    between atoms: _338  and  _340
REMARK  142  A    between atoms: _340  and  _341
REMARK  143  A    between atoms: _344  and  _346
REMARK  144  A    between atoms: _346  and  _347
REMARK  145  A    between atoms: _346  and  _349
REMARK  146  A    between atoms: _352  and  _354
REMARK  147  A    between atoms: _354  and  _355
REMARK  148  A    between atoms: _354  and  _357
REMARK  149  A    between atoms: _357  and  _358
REMARK  150  A    between atoms: _360  and  _362
REMARK  151  A    between atoms: _362  and  _363
REMARK  152  A    between atoms: _362  and  _365
REMARK  153  A    between atoms: _365  and  _366
REMARK  154  A    between atoms: _369  and  _371
REMARK  155  A    between atoms: _371  and  _372
REMARK  156  A    between atoms: _374  and  _376
REMARK  157  A    between atoms: _376  and  _377
REMARK  158  A    between atoms: _376  and  _379
REMARK  159  A    between atoms: _379  and  _380
REMARK  160  A    between atoms: _383  and  _385
REMARK  161  A    between atoms: _385  and  _386
REMARK  162  A    between atoms: _385  and  _388
REMARK  163  A    between atoms: _388  and  _389
REMARK  164  A    between atoms: _389  and  _390
REMARK  165  A    between atoms: _395  and  _397
REMARK  166  A    between atoms: _397  and  _398
REMARK  167  A    between atoms: _397  and  _400
REMARK  168  A    between atoms: _400  and  _401
REMARK  169  A    between atoms: _404  and  _406
REMARK  170  A    between atoms: _406  and  _407
REMARK  171  A    between atoms: _406  and  _409
REMARK  172  A    between atoms: _409  and  _410
REMARK  173  A    between atoms: _410  and  _411
REMARK  174  A    between atoms: _411  and  _412
REMARK  175  A    between atoms: _421  and  _423
REMARK  176  A    between atoms: _423  and  _424
REMARK  177  A    between atoms: _423  and  _426
REMARK  178  A    between atoms: _426  and  _427
REMARK  179  A    between atoms: _429  and  _431
REMARK  180  A    between atoms: _431  and  _432
REMARK  181  A    between atoms: _431  and  _434
REMARK  182  A    between atoms: _434  and  _435
REMARK  183  A    between atoms: _438  and  _440
REMARK  184  A    between atoms: _440  and  _441
REMARK  185  A    between atoms: _440  and  _443
REMARK  186  A    between atoms: _443  and  _444
REMARK  187  A    between atoms: _450  and  _452
REMARK  188  A    between atoms: _452  and  _453
REMARK  189  A    between atoms: _452  and  _455
REMARK  190  A    between atoms: _455  and  _456
REMARK  191  A    between atoms: _462  and  _464
REMARK  192  A    between atoms: _464  and  _465
REMARK  193  A    between atoms: _464  and  _467
REMARK  194  A    between atoms: _467  and  _468
REMARK  195  A    between atoms: _471  and  _473
REMARK  196  A    between atoms: _473  and  _474
REMARK  197  A    between atoms: _473  and  _476
REMARK  198  A    between atoms: _476  and  _477
REMARK  199  A    between atoms: _482  and  _483
REMARK  200  A    between atoms: _485  and  _487
REMARK  201  A    between atoms: _487  and  _488
REMARK  202  A    between atoms: _487  and  _490
REMARK  203  A    between atoms: _490  and  _491
REMARK  204  A    between atoms: _494  and  _496
REMARK  205  A    between atoms: _496  and  _497
REMARK  206  A    between atoms: _496  and  _499
REMARK  207  A    between atoms: _499  and  _500
REMARK  208  A    between atoms: _500  and  _501
REMARK  209  A    between atoms: _501  and  _502
REMARK  210  A    between atoms: _511  and  _513
REMARK  211  A    between atoms: _513  and  _514
REMARK  212  A    between atoms: _513  and  _516
REMARK  213  A    between atoms: _516  and  _517
REMARK  214  A    between atoms: _520  and  _522
REMARK  215  A    between atoms: _522  and  _523
REMARK  216  A    between atoms: _522  and  _525
REMARK  217  A    between atoms: _525  and  _526
REMARK  218  A    between atoms: _529  and  _531
REMARK  219  A    between atoms: _531  and  _532
REMARK  220  A    between atoms: _531  and  _534
REMARK  221  A    between atoms: _534  and  _535
REMARK  222  A    between atoms: _535  and  _536
REMARK  223  A    between atoms: _536  and  _537
REMARK  224  A    between atoms: _537  and  _538
REMARK  225  A    between atoms: _542  and  _544
REMARK  226  A    between atoms: _544  and  _545
REMARK  227  A    between atoms: _547  and  _549
REMARK  228  A    between atoms: _549  and  _550
REMARK  229  A    between atoms: _549  and  _552
REMARK                            x       y       z     vdW  Elec       q    Type
REMARK                         _______ _______ _______ _____ _____    ______ ____
ROOT
ATOM      1  CA  THR A   3       1.480  17.864  17.889  0.00  0.00    +0.176 C 
ENDROOT
BRANCH   1   4
ATOM      2  C   ASN A   2      -0.243  18.892  19.295  0.00  0.00    +0.241 C 
ATOM      3  O   ASN A   2      -0.378  17.847  19.898  0.00  0.00    -0.273 OA
ATOM      4  N   THR A   3       0.690  19.018  18.376  0.00  0.00    -0.295 N 
ATOM      5  H   THR A   3       0.879  19.960  17.978  0.00  0.00    +0.150 HD
BRANCH   2   6
ATOM      6  CA  ASN A   2      -1.041  20.171  19.614  0.00  0.00    +0.158 C 
BRANCH   6   9
ATOM      7  C   ASP A   1      -0.224  22.275  18.639  0.00  0.00    +0.239 C 
ATOM      8  O   ASP A   1       0.585  22.521  19.574  0.00  0.00    -0.274 OA
ATOM      9  N   ASN A   2      -0.953  21.182  18.564  0.00  0.00    -0.297 N 
ATOM     10  H   ASN A   2      -1.505  21.027  17.696  0.00  0.00    +0.150 HD
BRANCH   7  11
ATOM     11  CA  ASP A   1      -0.442  23.246  17.461  0.00  0.00    +0.156 C 
BRANCH  11  12
ATOM     12  N   ASP A   1      -1.060  24.417  17.996  0.00  0.00    -0.238 NA
ATOM     13  H   ASP A   1      -0.455  25.206  18.302  0.00  0.00    +0.142 HD
ENDBRANCH  11  12
BRANCH  11  14
ATOM     14  CB  ASP A   1       0.885  23.633  16.753  0.00  0.00    +0.140 C 
BRANCH  14  15
ATOM     15  CG  ASP A   1       1.648  22.422  16.130  0.00  0.00    +0.367 C 
ATOM     16  OD2 ASP A   1       1.455  21.274  16.554  0.00  0.00    -0.246 OA
ATOM     17  OD1 ASP A   1       2.502  22.620  15.214  0.00  0.00    -0.246 OA
ENDBRANCH  14  15
ENDBRANCH  11  14
ENDBRANCH   7  11
ENDBRANCH   6   9
BRANCH   6  18
ATOM     18  CB  ASN A   2      -2.568  19.900  19.920  0.00  0.00    +0.114 C 
BRANCH  18  19
ATOM     19  CG  ASN A   2      -2.782  19.206  21.255  0.00  0.00    +0.222 C 
ATOM     20  OD1 ASN A   2      -2.084  19.471  22.242  0.00  0.00    -0.275 OA
ATOM     21  ND2 ASN A   2      -3.752  18.270  21.289  0.00  0.00    -0.329 N 
ATOM     22 HD21 ASN A   2      -3.935  17.742  22.166  0.00  0.00    +0.145 HD
ATOM     23 HD22 ASN A   2      -4.318  18.076  20.438  0.00  0.00    +0.145 HD
ENDBRANCH  18  19
ENDBRANCH   6  18
ENDBRANCH   2   6
ENDBRANCH   1   4
BRANCH   1  24
ATOM     24  C   THR A   3       2.207  17.115  19.018  0.00  0.00    +0.243 C 
ATOM     25  N   PHE A   4       2.907  17.857  19.886  0.00  0.00    -0.297 N 
ATOM     26  H   PHE A   4       2.881  18.895  19.819  0.00  0.00    +0.150 HD
ATOM     27  O   THR A   3       2.160  15.860  19.088  0.00  0.00    -0.273 OA
BRANCH  25  28
ATOM     28  CA  PHE A   4       3.723  17.203  20.947  0.00  0.00    +0.153 C 
BRANCH  28  29
ATOM     29  C   PHE A   4       2.920  16.330  21.917  0.00  0.00    +0.241 C 
ATOM     30  O   PHE A   4       3.400  15.304  22.366  0.00  0.00    -0.273 OA
ATOM     31  N   MET A   5       1.671  16.713  22.184  0.00  0.00    -0.298 N 
ATOM     32  H   MET A   5       1.267  17.508  21.649  0.00  0.00    +0.150 HD
BRANCH  31  33
ATOM     33  CA  MET A   5       0.852  16.062  23.194  0.00  0.00    +0.138 C 
BRANCH  33  34
ATOM     34  C   MET A   5      -0.113  14.985  22.638  0.00  0.00    +0.227 C 
ATOM     35  O   MET A   5      -0.290  13.958  23.279  0.00  0.00    -0.286 OA
ENDBRANCH  33  34
BRANCH  33  36
ATOM     36  CB  MET A   5      -0.022  17.132  23.831  0.00  0.00    +0.039 C 
BRANCH  36  37
ATOM     37  CG  MET A   5       0.688  18.079  24.752  0.00  0.00    +0.060 C 
BRANCH  37  38
ATOM     38  SD  MET A   5       0.741  17.385  26.403  0.00  0.00    -0.139 S 
ATOM     39  CE  MET A   5       2.235  16.382  26.282  0.00  0.00    +0.069 C 
ENDBRANCH  37  38
ENDBRANCH  36  37
ENDBRANCH  33  36
ENDBRANCH  31  33
ENDBRANCH  28  29
BRANCH  28  40
ATOM     40  CB  PHE A   4       4.577  18.216  21.704  0.00  0.00    +0.055 C 
BRANCH  40  41
ATOM     41  CG  PHE A   4       5.933  18.446  21.094  0.00  0.00    -0.020 A 
ATOM     42  CD2 PHE A   4       7.023  18.696  21.930  0.00  0.00    -0.004 A 
ATOM     43  CE2 PHE A   4       8.285  18.932  21.371  0.00  0.00    -0.000 A 
ATOM     44  CZ  PHE A   4       8.475  18.909  19.984  0.00  0.00    -0.000 A 
ATOM     45  CE1 PHE A   4       7.396  18.652  19.141  0.00  0.00    -0.000 A 
ATOM     46  CD1 PHE A   4       6.137  18.422  19.686  0.00  0.00    -0.004 A 
ENDBRANCH  40  41
ENDBRANCH  28  40
ENDBRANCH  25  28
ENDBRANCH   1  24
BRANCH   1  47
ATOM     47  CB  THR A   3       2.514  18.357  16.881  0.00  0.00    +0.137 C 
ATOM     48  CG2 THR A   3       3.499  17.253  16.438  0.00  0.00    +0.034 C 
BRANCH  47  49
ATOM     49  OG1 THR A   3       1.890  18.917  15.720  0.00  0.00    -0.382 OA
ATOM     50  HG1 THR A   3       1.323  19.683  15.988  0.00  0.00    +0.210 HD
ENDBRANCH  47  49
ENDBRANCH   1  47
TORSDOF 21
REMARK  Name = ../refined-set-2016/4oma/4oma_pocket.pdb
REMARK  229 active torsions:
REMARK  status: ('A' for Active; 'I' for Inactive)
REMARK    1  A    between atoms: _1  and  _3
REMARK    2  A    between atoms: _3  and  _4
REMARK    3  A    between atoms: _3  and  _6
REMARK    4  A    between atoms: _6  and  _7
REMARK    5  A    between atoms: _10  and  _12
REMARK    6  A    between atoms: _12  and  _13
REMARK    7  A    between atoms: _16  and  _18
REMARK    8  A    between atoms: _18  and  _19
REMARK    9  A    between atoms: _18  and  _21
REMARK   10  A    between atoms: _21  and  _22
REMARK   11  A    between atoms: _24  and  _26
REMARK   12  A    between atoms: _26  and  _27
REMARK   13  A    between atoms: _29  and  _31
REMARK   14  A    between atoms: _31  and  _32
REMARK   15  A    between atoms: _31  and  _34
REMARK   16  A    between atoms: _34  and  _35
REMARK   17  A    between atoms: _38  and  _40
REMARK   18  A    between atoms: _40  and  _41
REMARK   19  A    between atoms: _40  and  _43
REMARK   20  A    between atoms: _43  and  _44
REMARK   21  A    between atoms: _46  and  _48
REMARK   22  A    between atoms: _48  and  _49
REMARK   23  A    between atoms: _52  and  _54
REMARK   24  A    between atoms: _54  and  _55
REMARK   25  A    between atoms: _54  and  _57
REMARK   26  A    between atoms: _57  and  _58
REMARK   27  A    between atoms: _61  and  _63
REMARK   28  A    between atoms: _63  and  _64
REMARK   29  A    between atoms: _63  and  _66
REMARK   30  A    between atoms: _66  and  _67
REMARK   31  A    between atoms: _70  and  _72
REMARK   32  A    between atoms: _72  and  _73
REMARK   33  A    between atoms: _76  and  _78
REMARK   34  A    between atoms: _78  and  _79
REMARK   35  A    between atoms: _78  and  _81
REMARK   36  A    between atoms: _81  and  _82
REMARK   37  A    between atoms: _85  and  _87
REMARK   38  A    between atoms: _87  and  _88
REMARK   39  A    between atoms: _87  and  _90
REMARK   40  A    between atoms: _90  and  _91
REMARK   41  A    between atoms: _96  and  _97
REMARK   42  A    between atoms: _99  and  _101
REMARK   43  A    between atoms: _101  and  _102
REMARK   44  A    between atoms: _104  and  _106
REMARK   45  A    between atoms: _106  and  _107
REMARK   46  A    between atoms: _106  and  _109
REMARK   47  A    between atoms: _111  and  _113
REMARK   48  A    between atoms: _113  and  _114
REMARK   49  A    between atoms: _113  and  _116
REMARK   50  A    between atoms: _116  and  _117
REMARK   51  A    between atoms: _120  and  _122
REMARK   52  A    between atoms: _122  and  _123
REMARK   53  A    between atoms: _122  and  _125
REMARK   54  A    between atoms: _125  and  _126
REMARK   55  A    between atoms: _131  and  _132
REMARK   56  A    between atoms: _134  and  _136
REMARK   57  A    between atoms: _136  and  _137
REMARK   58  A    between atoms: _136  and  _139
REMARK   59  A    between atoms: _139  and  _140
REMARK   60  A    between atoms: _143  and  _145
REMARK   61  A    between atoms: _145  and  _146
REMARK   62  A    between atoms: _145  and  _148
REMARK   63  A    between atoms: _148  and  _149
REMARK   64  A    between atoms: _149  and  _150
REMARK   65  A    between atoms: _153  and  _155
REMARK   66  A    between atoms: _155  and  _156
REMARK   67  A    between atoms: _155  and  _158
REMARK   68  A    between atoms: _158  and  _159
REMARK   69  A    between atoms: _163  and  _164
REMARK   70  A    between atoms: _169  and  _171
REMARK   71  A    between atoms: _171  and  _172
REMARK   72  A    between atoms: _175  and  _177
REMARK   73  A    between atoms: _177  and  _178
REMARK   74  A    between atoms: _177  and  _180
REMARK   75  A    between atoms: _180  and  _181
REMARK   76  A    between atoms: _186  and  _188
REMARK   77  A    between atoms: _188  and  _189
REMARK   78  A    between atoms: _188  and  _191
REMARK   79  A    between atoms: _191  and  _192
REMARK   80  A    between atoms: _195  and  _197
REMARK   81  A    between atoms: _197  and  _198
REMARK   82  A    between atoms: _197  and  _200
REMARK   83  A    between atoms: _200  and  _201
REMARK   84  A    between atoms: _206  and  _208
REMARK   85  A    between atoms: _208  and  _209
REMARK   86  A    between atoms: _208  and  _211
REMARK   87  A    between atoms: _211  and  _212
REMARK   88  A    between atoms: _215  and  _217
REMARK   89  A    between atoms: _217  and  _218
REMARK   90  A    between atoms: _217  and  _220
REMARK   91  A    between atoms: _220  and  _221
REMARK   92  A    between atoms: _227  and  _229
REMARK   93  A    between atoms: _229  and  _230
REMARK   94  A    between atoms: _229  and  _232
REMARK   95  A    between atoms: _232  and  _233
REMARK   96  A    between atoms: _233  and  _234
REMARK   97  A    between atoms: _236  and  _238
REMARK   98  A    between atoms: _238  and  _239
REMARK   99  A    between atoms: _238  and  _241
REMARK  100  A    between atoms: _244  and  _246
REMARK  101  A    between atoms: _246  and  _247
REMARK  102  A    between atoms: _246  and  _249
REMARK  103  A    between atoms: _249  and  _250
REMARK  104  A    between atoms: _255  and  _257
REMARK  105  A    between atoms: _257  and  _258
REMARK  106  A    between atoms: _257  and  _260
REMARK  107  A    between atoms: _260  and  _261
REMARK  108  A    between atoms: _263  and  _265
REMARK  109  A    between atoms: _265  and  _266
REMARK  110  A    between atoms: _265  and  _268
REMARK  111  A    between atoms: _271  and  _273
REMARK  112  A    between atoms: _273  and  _274
REMARK  113  A    between atoms: _273  and  _276
REMARK  114  A    between atoms: _276  and  _277
REMARK  115  A    between atoms: _280  and  _282
REMARK  116  A    between atoms: _282  and  _283
REMARK  117  A    between atoms: _282  and  _285
REMARK  118  A    between atoms: _285  and  _286
REMARK  119  A    between atoms: _286  and  _287
REMARK  120  A    between atoms: _287  and  _288
REMARK  121  A    between atoms: _288  and  _289
REMARK  122  A    between atoms: _293  and  _295
REMARK  123  A    between atoms: _295  and  _296
REMARK  124  A    between atoms: _295  and  _298
REMARK  125  A    between atoms: _301  and  _303
REMARK  126  A    between atoms: _303  and  _304
REMARK  127  A    between atoms: _303  and  _306
REMARK  128  A    between atoms: _306  and  _307
REMARK  129  A    between atoms: _310  and  _312
REMARK  130  A    between atoms: _312  and  _313
REMARK  131  A    between atoms: _315  and  _317
REMARK  132  A    between atoms: _317  and  _318
REMARK  133  A    between atoms: _320  and  _322
REMARK  134  A    between atoms: _322  and  _323
REMARK  135  A    between atoms: _322  and  _325
REMARK  136  A    between atoms: _325  and  _326
REMARK  137  A    between atoms: _329  and  _331
REMARK  138  A    between atoms: _331  and  _332
REMARK  139  A    between atoms: _331  and  _334
REMARK  140  A    between atoms: _334  and  _335
REMARK  141  A    between atoms: _338  and  _340
REMARK  142  A    between atoms: _340  and  _341
REMARK  143  A    between atoms: _344  and  _346
REMARK  144  A    between atoms: _346  and  _347
REMARK  145  A    between atoms: _346  and  _349
REMARK  146  A    between atoms: _352  and  _354
REMARK  147  A    between atoms: _354  and  _355
REMARK  148  A    between atoms: _354  and  _357
REMARK  149  A    between atoms: _357  and  _358
REMARK  150  A    between atoms: _360  and  _362
REMARK  151  A    between atoms: _362  and  _363
REMARK  152  A    between atoms: _362  and  _365
REMARK  153  A    between atoms: _365  and  _366
REMARK  154  A    between atoms: _369  and  _371
REMARK  155  A    between atoms: _371  and  _372
REMARK  156  A    between atoms: _374  and  _376
REMARK  157  A    between atoms: _376  and  _377
REMARK  158  A    between atoms: _376  and  _379
REMARK  159  A    between atoms: _379  and  _380
REMARK  160  A    between atoms: _383  and  _385
REMARK  161  A    between atoms: _385  and  _386
REMARK  162  A    between atoms: _385  and  _388
REMARK  163  A    between atoms: _388  and  _389
REMARK  164  A    between atoms: _389  and  _390
REMARK  165  A    between atoms: _395  and  _397
REMARK  166  A    between atoms: _397  and  _398
REMARK  167  A    between atoms: _397  and  _400
REMARK  168  A    between atoms: _400  and  _401
REMARK  169  A    between atoms: _404  and  _406
REMARK  170  A    between atoms: _406  and  _407
REMARK  171  A    between atoms: _406  and  _409
REMARK  172  A    between atoms: _409  and  _410
REMARK  173  A    between atoms: _410  and  _411
REMARK  174  A    between atoms: _411  and  _412
REMARK  175  A    between atoms: _421  and  _423
REMARK  176  A    between atoms: _423  and  _424
REMARK  177  A    between atoms: _423  and  _426
REMARK  178  A    between atoms: _426  and  _427
REMARK  179  A    between atoms: _429  and  _431
REMARK  180  A    between atoms: _431  and  _432
REMARK  181  A    between atoms: _431  and  _434
REMARK  182  A    between atoms: _434  and  _435
REMARK  183  A    between atoms: _438  and  _440
REMARK  184  A    between atoms: _440  and  _441
REMARK  185  A    between atoms: _440  and  _443
REMARK  186  A    between atoms: _443  and  _444
REMARK  187  A    between atoms: _450  and  _452
REMARK  188  A    between atoms: _452  and  _453
REMARK  189  A    between atoms: _452  and  _455
REMARK  190  A    between atoms: _455  and  _456
REMARK  191  A    between atoms: _462  and  _464
REMARK  192  A    between atoms: _464  and  _465
REMARK  193  A    between atoms: _464  and  _467
REMARK  194  A    between atoms: _467  and  _468
REMARK  195  A    between atoms: _471  and  _473
REMARK  196  A    between atoms: _473  and  _474
REMARK  197  A    between atoms: _473  and  _476
REMARK  198  A    between atoms: _476  and  _477
REMARK  199  A    between atoms: _482  and  _483
REMARK  200  A    between atoms: _485  and  _487
REMARK  201  A    between atoms: _487  and  _488
REMARK  202  A    between atoms: _487  and  _490
REMARK  203  A    between atoms: _490  and  _491
REMARK  204  A    between atoms: _494  and  _496
REMARK  205  A    between atoms: _496  and  _497
REMARK  206  A    between atoms: _496  and  _499
REMARK  207  A    between atoms: _499  and  _500
REMARK  208  A    between atoms: _500  and  _501
REMARK  209  A    between atoms: _501  and  _502
REMARK  210  A    between atoms: _511  and  _513
REMARK  211  A    between atoms: _513  and  _514
REMARK  212  A    between atoms: _513  and  _516
REMARK  213  A    between atoms: _516  and  _517
REMARK  214  A    between atoms: _520  and  _522
REMARK  215  A    between atoms: _522  and  _523
REMARK  216  A    between atoms: _522  and  _525
REMARK  217  A    between atoms: _525  and  _526
REMARK  218  A    between atoms: _529  and  _531
REMARK  219  A    between atoms: _531  and  _532
REMARK  220  A    between atoms: _531  and  _534
REMARK  221  A    between atoms: _534  and  _535
REMARK  222  A    between atoms: _535  and  _536
REMARK  223  A    between atoms: _536  and  _537
REMARK  224  A    between atoms: _537  and  _538
REMARK  225  A    between atoms: _542  and  _544
REMARK  226  A    between atoms: _544  and  _545
REMARK  227  A    between atoms: _547  and  _549
REMARK  228  A    between atoms: _549  and  _550
REMARK  229  A    between atoms: _549  and  _552
REMARK                            x       y       z     vdW  Elec       q    Type
REMARK                         _______ _______ _______ _____ _____    ______ ____
ROOT
ATOM      1  C   SER A   3       1.214  15.659  12.840  0.00  0.00    +0.243 C 
ATOM      2  O   SER A   3       1.607  15.248  13.950  0.00  0.00    -0.273 OA
ATOM      3  N   VAL A   4       0.421  14.912  12.061  0.00  0.00    -0.297 N 
ATOM      4  H   VAL A   4       0.022  15.319  11.191  0.00  0.00    +0.150 HD
ENDROOT
BRANCH   3   5
ATOM      5  CA  VAL A   4       0.113  13.537  12.421  0.00  0.00    +0.149 C 
BRANCH   5   6
ATOM      6  C   VAL A   4       1.280  12.642  12.199  0.00  0.00    +0.241 C 
ATOM      7  O   VAL A   4       1.271  11.489  12.648  0.00  0.00    -0.273 OA
ATOM      8  N   THR A   5       2.314  13.205  11.575  0.00  0.00    -0.295 N 
ATOM      9  H   THR A   5       2.226  14.178  11.219  0.00  0.00    +0.150 HD
BRANCH   8  10
ATOM     10  CA  THR A   5       3.557  12.490  11.382  0.00  0.00    +0.176 C 
BRANCH  10  11
ATOM     11  C   THR A   5       4.138  11.975  12.701  0.00  0.00    +0.243 C 
ATOM     12  N   LYS A   6       3.846  12.704  13.764  0.00  0.00    -0.298 N 
ATOM     13  H   LYS A   6       3.230  13.535  13.651  0.00  0.00    +0.150 HD
ATOM     14  O   THR A   5       4.835  10.946  12.748  0.00  0.00    -0.273 OA
BRANCH  12  15
ATOM     15  CA  LYS A   6       4.359  12.381  15.087  0.00  0.00    +0.137 C 
BRANCH  15  16
ATOM     16  C   LYS A   6       3.467  11.356  15.804  0.00  0.00    +0.227 C 
ATOM     17  O   LYS A   6       3.206  10.272  15.232  0.00  0.00    -0.286 OA
ENDBRANCH  15  16
BRANCH  15  18
ATOM     18  CB  LYS A   6       4.670  13.672  15.859  0.00  0.00    +0.028 C 
BRANCH  18  19
ATOM     19  CG  LYS A   6       5.221  14.768  14.957  0.00  0.00    -0.000 C 
BRANCH  19  20
ATOM     20  CD  LYS A   6       6.403  14.331  14.071  0.00  0.00    -0.024 C 
BRANCH  20  21
ATOM     21  CE  LYS A   6       7.058  15.510  13.350  0.00  0.00    -0.086 C 
BRANCH  21  22
ATOM     22  NZ  LYS A   6       8.231  15.097  12.516  0.00  0.00    +0.380 N 
ATOM     23  HZ1 LYS A   6       8.950  14.656  13.125  0.00  0.00    -0.089 HD
ATOM     24  HZ2 LYS A   6       8.636  15.934  12.051  0.00  0.00    -0.089 HD
ATOM     25  HZ3 LYS A   6       7.919  14.415  11.795  0.00  0.00    -0.089 HD
ENDBRANCH  21  22
ENDBRANCH  20  21
ENDBRANCH  19  20
ENDBRANCH  18  19
ENDBRANCH  15  18
ENDBRANCH  12  15
ENDBRANCH  10  11
BRANCH  10  26
ATOM     26  CB  THR A   5       4.557  13.474  10.761  0.00  0.00    +0.137 C 
ATOM     27  CG2 THR A   5       5.981  12.816  10.489  0.00  0.00    +0.034 C 
BRANCH  26  28
ATOM     28  OG1 THR A   5       4.024  14.060   9.573  0.00  0.00    -0.382 OA
ATOM     29  HG1 THR A   5       4.686  14.690   9.191  0.00  0.00    +0.210 HD
ENDBRANCH  26  28
ENDBRANCH  10  26
ENDBRANCH   8  10
ENDBRANCH   5   6
BRANCH   5  30
ATOM     30  CB  VAL A   4      -1.148  12.946  11.758  0.00  0.00    +0.027 C 
ATOM     31  CG2 VAL A   4      -2.266  13.919  12.058  0.00  0.00    +0.002 C 
ATOM     32  CG1 VAL A   4      -0.997  12.654  10.256  0.00  0.00    +0.002 C 
ENDBRANCH   5  30
ENDBRANCH   3   5
BRANCH   1  33
ATOM     33  CA  SER A   3       1.574  17.077  12.388  0.00  0.00    +0.178 C 
BRANCH  33  35
ATOM     34  C   HIS A   2      -0.446  18.278  13.028  0.00  0.00    +0.241 C 
ATOM     35  N   SER A   3       0.873  18.015  13.259  0.00  0.00    -0.295 N 
ATOM     36  H   SER A   3       1.372  18.477  14.046  0.00  0.00    +0.150 HD
ATOM     37  O   HIS A   2      -0.963  18.214  11.931  0.00  0.00    -0.273 OA
BRANCH  34  38
ATOM     38  CA  HIS A   2      -1.277  18.595  14.245  0.00  0.00    +0.155 C 
BRANCH  38  41
ATOM     39  C   VAL A   1      -2.496  20.614  14.711  0.00  0.00    +0.238 C 
ATOM     40  O   VAL A   1      -1.997  20.764  15.831  0.00  0.00    -0.274 OA
ATOM     41  N   HIS A   2      -2.287  19.553  13.947  0.00  0.00    -0.297 N 
ATOM     42  H   HIS A   2      -2.879  19.415  13.103  0.00  0.00    +0.150 HD
BRANCH  39  43
ATOM     43  CA  VAL A   1      -3.503  21.645  14.171  0.00  0.00    +0.145 C 
BRANCH  43  44
ATOM     44  CB  VAL A   1      -2.746  22.670  13.292  0.00  0.00    +0.025 C 
ATOM     45  CG2 VAL A   1      -1.670  23.435  14.114  0.00  0.00    +0.002 C 
ATOM     46  CG1 VAL A   1      -3.748  23.573  12.567  0.00  0.00    +0.002 C 
ENDBRANCH  43  44
BRANCH  43  47
ATOM     47  N   VAL A   1      -4.199  22.270  15.286  0.00  0.00    -0.238 NA
ATOM     48  H   VAL A   1      -3.653  22.730  16.042  0.00  0.00    +0.142 HD
ENDBRANCH  43  47
ENDBRANCH  39  43
ENDBRANCH  38  41
BRANCH  38  49
ATOM     49  CB  HIS A   2      -1.807  17.249  14.722  0.00  0.00    +0.076 C 
BRANCH  49  50
ATOM     50  CG  HIS A   2      -2.496  17.255  16.043  0.00  0.00    +0.082 A 
ATOM     51  CD2 HIS A   2      -2.045  16.933  17.262  0.00  0.00    +0.115 A 
ATOM     52  NE2 HIS A   2      -3.105  17.017  18.122  0.00  0.00    -0.221 NA
ATOM     53  CE1 HIS A   2      -4.202  17.322  17.451  0.00  0.00    +0.199 A 
ATOM     54  ND1 HIS A   2      -3.885  17.457  16.181  0.00  0.00    -0.227 NA
ENDBRANCH  49  50
ENDBRANCH  38  49
ENDBRANCH  34  38
ENDBRANCH  33  35
BRANCH  33  55
ATOM     55  CB  SER A   3       3.123  17.259  12.550  0.00  0.00    +0.166 C 
BRANCH  55  56
ATOM     56  OG  SER A   3       3.721  16.244  11.795  0.00  0.00    -0.380 OA
ATOM     57  H   SER A   3       3.450  16.336  10.847  0.00  0.00    +0.211 HD
ENDBRANCH  55  56
ENDBRANCH  33  55
ENDBRANCH   1  33
TORSDOF 25
REMARK  Name = ../refined-set-2016/4oma/4oma_pocket.pdb
REMARK  229 active torsions:
REMARK  status: ('A' for Active; 'I' for Inactive)
REMARK    1  A    between atoms: _1  and  _3
REMARK    2  A    between atoms: _3  and  _4
REMARK    3  A    between atoms: _3  and  _6
REMARK    4  A    between atoms: _6  and  _7
REMARK    5  A    between atoms: _10  and  _12
REMARK    6  A    between atoms: _12  and  _13
REMARK    7  A    between atoms: _16  and  _18
REMARK    8  A    between atoms: _18  and  _19
REMARK    9  A    between atoms: _18  and  _21
REMARK   10  A    between atoms: _21  and  _22
REMARK   11  A    between atoms: _24  and  _26
REMARK   12  A    between atoms: _26  and  _27
REMARK   13  A    between atoms: _29  and  _31
REMARK   14  A    between atoms: _31  and  _32
REMARK   15  A    between atoms: _31  and  _34
REMARK   16  A    between atoms: _34  and  _35
REMARK   17  A    between atoms: _38  and  _40
REMARK   18  A    between atoms: _40  and  _41
REMARK   19  A    between atoms: _40  and  _43
REMARK   20  A    between atoms: _43  and  _44
REMARK   21  A    between atoms: _46  and  _48
REMARK   22  A    between atoms: _48  and  _49
REMARK   23  A    between atoms: _52  and  _54
REMARK   24  A    between atoms: _54  and  _55
REMARK   25  A    between atoms: _54  and  _57
REMARK   26  A    between atoms: _57  and  _58
REMARK   27  A    between atoms: _61  and  _63
REMARK   28  A    between atoms: _63  and  _64
REMARK   29  A    between atoms: _63  and  _66
REMARK   30  A    between atoms: _66  and  _67
REMARK   31  A    between atoms: _70  and  _72
REMARK   32  A    between atoms: _72  and  _73
REMARK   33  A    between atoms: _76  and  _78
REMARK   34  A    between atoms: _78  and  _79
REMARK   35  A    between atoms: _78  and  _81
REMARK   36  A    between atoms: _81  and  _82
REMARK   37  A    between atoms: _85  and  _87
REMARK   38  A    between atoms: _87  and  _88
REMARK   39  A    between atoms: _87  and  _90
REMARK   40  A    between atoms: _90  and  _91
REMARK   41  A    between atoms: _96  and  _97
REMARK   42  A    between atoms: _99  and  _101
REMARK   43  A    between atoms: _101  and  _102
REMARK   44  A    between atoms: _104  and  _106
REMARK   45  A    between atoms: _106  and  _107
REMARK   46  A    between atoms: _106  and  _109
REMARK   47  A    between atoms: _111  and  _113
REMARK   48  A    between atoms: _113  and  _114
REMARK   49  A    between atoms: _113  and  _116
REMARK   50  A    between atoms: _116  and  _117
REMARK   51  A    between atoms: _120  and  _122
REMARK   52  A    between atoms: _122  and  _123
REMARK   53  A    between atoms: _122  and  _125
REMARK   54  A    between atoms: _125  and  _126
REMARK   55  A    between atoms: _131  and  _132
REMARK   56  A    between atoms: _134  and  _136
REMARK   57  A    between atoms: _136  and  _137
REMARK   58  A    between atoms: _136  and  _139
REMARK   59  A    between atoms: _139  and  _140
REMARK   60  A    between atoms: _143  and  _145
REMARK   61  A    between atoms: _145  and  _146
REMARK   62  A    between atoms: _145  and  _148
REMARK   63  A    between atoms: _148  and  _149
REMARK   64  A    between atoms: _149  and  _150
REMARK   65  A    between atoms: _153  and  _155
REMARK   66  A    between atoms: _155  and  _156
REMARK   67  A    between atoms: _155  and  _158
REMARK   68  A    between atoms: _158  and  _159
REMARK   69  A    between atoms: _163  and  _164
REMARK   70  A    between atoms: _169  and  _171
REMARK   71  A    between atoms: _171  and  _172
REMARK   72  A    between atoms: _175  and  _177
REMARK   73  A    between atoms: _177  and  _178
REMARK   74  A    between atoms: _177  and  _180
REMARK   75  A    between atoms: _180  and  _181
REMARK   76  A    between atoms: _186  and  _188
REMARK   77  A    between atoms: _188  and  _189
REMARK   78  A    between atoms: _188  and  _191
REMARK   79  A    between atoms: _191  and  _192
REMARK   80  A    between atoms: _195  and  _197
REMARK   81  A    between atoms: _197  and  _198
REMARK   82  A    between atoms: _197  and  _200
REMARK   83  A    between atoms: _200  and  _201
REMARK   84  A    between atoms: _206  and  _208
REMARK   85  A    between atoms: _208  and  _209
REMARK   86  A    between atoms: _208  and  _211
REMARK   87  A    between atoms: _211  and  _212
REMARK   88  A    between atoms: _215  and  _217
REMARK   89  A    between atoms: _217  and  _218
REMARK   90  A    between atoms: _217  and  _220
REMARK   91  A    between atoms: _220  and  _221
REMARK   92  A    between atoms: _227  and  _229
REMARK   93  A    between atoms: _229  and  _230
REMARK   94  A    between atoms: _229  and  _232
REMARK   95  A    between atoms: _232  and  _233
REMARK   96  A    between atoms: _233  and  _234
REMARK   97  A    between atoms: _236  and  _238
REMARK   98  A    between atoms: _238  and  _239
REMARK   99  A    between atoms: _238  and  _241
REMARK  100  A    between atoms: _244  and  _246
REMARK  101  A    between atoms: _246  and  _247
REMARK  102  A    between atoms: _246  and  _249
REMARK  103  A    between atoms: _249  and  _250
REMARK  104  A    between atoms: _255  and  _257
REMARK  105  A    between atoms: _257  and  _258
REMARK  106  A    between atoms: _257  and  _260
REMARK  107  A    between atoms: _260  and  _261
REMARK  108  A    between atoms: _263  and  _265
REMARK  109  A    between atoms: _265  and  _266
REMARK  110  A    between atoms: _265  and  _268
REMARK  111  A    between atoms: _271  and  _273
REMARK  112  A    between atoms: _273  and  _274
REMARK  113  A    between atoms: _273  and  _276
REMARK  114  A    between atoms: _276  and  _277
REMARK  115  A    between atoms: _280  and  _282
REMARK  116  A    between atoms: _282  and  _283
REMARK  117  A    between atoms: _282  and  _285
REMARK  118  A    between atoms: _285  and  _286
REMARK  119  A    between atoms: _286  and  _287
REMARK  120  A    between atoms: _287  and  _288
REMARK  121  A    between atoms: _288  and  _289
REMARK  122  A    between atoms: _293  and  _295
REMARK  123  A    between atoms: _295  and  _296
REMARK  124  A    between atoms: _295  and  _298
REMARK  125  A    between atoms: _301  and  _303
REMARK  126  A    between atoms: _303  and  _304
REMARK  127  A    between atoms: _303  and  _306
REMARK  128  A    between atoms: _306  and  _307
REMARK  129  A    between atoms: _310  and  _312
REMARK  130  A    between atoms: _312  and  _313
REMARK  131  A    between atoms: _315  and  _317
REMARK  132  A    between atoms: _317  and  _318
REMARK  133  A    between atoms: _320  and  _322
REMARK  134  A    between atoms: _322  and  _323
REMARK  135  A    between atoms: _322  and  _325
REMARK  136  A    between atoms: _325  and  _326
REMARK  137  A    between atoms: _329  and  _331
REMARK  138  A    between atoms: _331  and  _332
REMARK  139  A    between atoms: _331  and  _334
REMARK  140  A    between atoms: _334  and  _335
REMARK  141  A    between atoms: _338  and  _340
REMARK  142  A    between atoms: _340  and  _341
REMARK  143  A    between atoms: _344  and  _346
REMARK  144  A    between atoms: _346  and  _347
REMARK  145  A    between atoms: _346  and  _349
REMARK  146  A    between atoms: _352  and  _354
REMARK  147  A    between atoms: _354  and  _355
REMARK  148  A    between atoms: _354  and  _357
REMARK  149  A    between atoms: _357  and  _358
REMARK  150  A    between atoms: _360  and  _362
REMARK  151  A    between atoms: _362  and  _363
REMARK  152  A    between atoms: _362  and  _365
REMARK  153  A    between atoms: _365  and  _366
REMARK  154  A    between atoms: _369  and  _371
REMARK  155  A    between atoms: _371  and  _372
REMARK  156  A    between atoms: _374  and  _376
REMARK  157  A    between atoms: _376  and  _377
REMARK  158  A    between atoms: _376  and  _379
REMARK  159  A    between atoms: _379  and  _380
REMARK  160  A    between atoms: _383  and  _385
REMARK  161  A    between atoms: _385  and  _386
REMARK  162  A    between atoms: _385  and  _388
REMARK  163  A    between atoms: _388  and  _389
REMARK  164  A    between atoms: _389  and  _390
REMARK  165  A    between atoms: _395  and  _397
REMARK  166  A    between atoms: _397  and  _398
REMARK  167  A    between atoms: _397  and  _400
REMARK  168  A    between atoms: _400  and  _401
REMARK  169  A    between atoms: _404  and  _406
REMARK  170  A    between atoms: _406  and  _407
REMARK  171  A    between atoms: _406  and  _409
REMARK  172  A    between atoms: _409  and  _410
REMARK  173  A    between atoms: _410  and  _411
REMARK  174  A    between atoms: _411  and  _412
REMARK  175  A    between atoms: _421  and  _423
REMARK  176  A    between atoms: _423  and  _424
REMARK  177  A    between atoms: _423  and  _426
REMARK  178  A    between atoms: _426  and  _427
REMARK  179  A    between atoms: _429  and  _431
REMARK  180  A    between atoms: _431  and  _432
REMARK  181  A    between atoms: _431  and  _434
REMARK  182  A    between atoms: _434  and  _435
REMARK  183  A    between atoms: _438  and  _440
REMARK  184  A    between atoms: _440  and  _441
REMARK  185  A    between atoms: _440  and  _443
REMARK  186  A    between atoms: _443  and  _444
REMARK  187  A    between atoms: _450  and  _452
REMARK  188  A    between atoms: _452  and  _453
REMARK  189  A    between atoms: _452  and  _455
REMARK  190  A    between atoms: _455  and  _456
REMARK  191  A    between atoms: _462  and  _464
REMARK  192  A    between atoms: _464  and  _465
REMARK  193  A    between atoms: _464  and  _467
REMARK  194  A    between atoms: _467  and  _468
REMARK  195  A    between atoms: _471  and  _473
REMARK  196  A    between atoms: _473  and  _474
REMARK  197  A    between atoms: _473  and  _476
REMARK  198  A    between atoms: _476  and  _477
REMARK  199  A    between atoms: _482  and  _483
REMARK  200  A    between atoms: _485  and  _487
REMARK  201  A    between atoms: _487  and  _488
REMARK  202  A    between atoms: _487  and  _490
REMARK  203  A    between atoms: _490  and  _491
REMARK  204  A    between atoms: _494  and  _496
REMARK  205  A    between atoms: _496  and  _497
REMARK  206  A    between atoms: _496  and  _499
REMARK  207  A    between atoms: _499  and  _500
REMARK  208  A    between atoms: _500  and  _501
REMARK  209  A    between atoms: _501  and  _502
REMARK  210  A    between atoms: _511  and  _513
REMARK  211  A    between atoms: _513  and  _514
REMARK  212  A    between atoms: _513  and  _516
REMARK  213  A    between atoms: _516  and  _517
REMARK  214  A    between atoms: _520  and  _522
REMARK  215  A    between atoms: _522  and  _523
REMARK  216  A    between atoms: _522  and  _525
REMARK  217  A    between atoms: _525  and  _526
REMARK  218  A    between atoms: _529  and  _531
REMARK  219  A    between atoms: _531  and  _532
REMARK  220  A    between atoms: _531  and  _534
REMARK  221  A    between atoms: _534  and  _535
REMARK  222  A    between atoms: _535  and  _536
REMARK  223  A    between atoms: _536  and  _537
REMARK  224  A    between atoms: _537  and  _538
REMARK  225  A    between atoms: _542  and  _544
REMARK  226  A    between atoms: _544  and  _545
REMARK  227  A    between atoms: _547  and  _549
REMARK  228  A    between atoms: _549  and  _550
REMARK  229  A    between atoms: _549  and  _552
REMARK                            x       y       z     vdW  Elec       q    Type
REMARK                         _______ _______ _______ _____ _____    ______ ____
ROOT
ATOM      1  C   ILE A   2       2.493  13.041   6.445  0.00  0.00    +0.241 C 
ATOM      2  N   GLY A   3       1.943  13.796   7.364  0.00  0.00    -0.295 N 
ATOM      3  H   GLY A   3       2.513  14.088   8.183  0.00  0.00    +0.150 HD
ATOM      4  O   ILE A   2       1.926  12.703   5.427  0.00  0.00    -0.273 OA
ENDROOT
BRANCH   1   5
ATOM      5  CA  ILE A   2       4.023  12.589   6.691  0.00  0.00    +0.148 C 
BRANCH   5   8
ATOM      6  C   VAL A   1       3.952  10.341   7.608  0.00  0.00    +0.238 C 
ATOM      7  O   VAL A   1       4.161  10.718   8.744  0.00  0.00    -0.274 OA
ATOM      8  N   ILE A   2       4.001  11.150   6.562  0.00  0.00    -0.297 N 
ATOM      9  H   ILE A   2       4.025  10.734   5.609  0.00  0.00    +0.150 HD
BRANCH   6  10
ATOM     10  CA  VAL A   1       3.567   8.905   7.356  0.00  0.00    +0.145 C 
BRANCH  10  11
ATOM     11  CB  VAL A   1       2.069   8.700   7.952  0.00  0.00    +0.025 C 
ATOM     12  CG2 VAL A   1       1.460   7.396   7.530  0.00  0.00    +0.002 C 
ATOM     13  CG1 VAL A   1       1.260   9.878   7.509  0.00  0.00    +0.002 C 
ENDBRANCH  10  11
BRANCH  10  14
ATOM     14  N   VAL A   1       4.437   7.980   7.956  0.00  0.00    -0.238 NA
ATOM     15  H   VAL A   1       4.721   8.149   8.942  0.00  0.00    +0.142 HD
ENDBRANCH  10  14
ENDBRANCH   6  10
ENDBRANCH   5   8
BRANCH   5  16
ATOM     16  CB  ILE A   2       4.849  13.318   5.647  0.00  0.00    +0.027 C 
ATOM     17  CG2 ILE A   2       4.738  14.821   5.823  0.00  0.00    +0.002 C 
BRANCH  16  18
ATOM     18  CG1 ILE A   2       6.339  12.869   5.720  0.00  0.00    +0.002 C 
ATOM     19  CD1 ILE A   2       7.000  13.173   7.040  0.00  0.00    +0.000 C 
ENDBRANCH  16  18
ENDBRANCH   5  16
ENDBRANCH   1   5
BRANCH   2  20
ATOM     20  CA  GLY A   3       0.563  14.237   7.275  0.00  0.00    +0.176 C 
BRANCH  20  21
ATOM     21  C   GLY A   3       0.250  15.254   8.359  0.00  0.00    +0.243 C 
ATOM     22  O   GLY A   3       0.998  15.409   9.336  0.00  0.00    -0.273 OA
ATOM     23  N   GLY A   4      -0.913  15.937   8.216  0.00  0.00    -0.295 N 
ATOM     24  H   GLY A   4      -1.537  15.727   7.411  0.00  0.00    +0.150 HD
BRANCH  23  25
ATOM     25  CA  GLY A   4      -1.284  16.923   9.141  0.00  0.00    +0.176 C 
BRANCH  25  26
ATOM     26  C   GLY A   4      -2.804  16.792   9.302  0.00  0.00    +0.243 C 
ATOM     27  N   ILE A   5      -3.314  17.453  10.300  0.00  0.00    -0.298 N 
ATOM     28  H   ILE A   5      -2.694  17.953  10.968  0.00  0.00    +0.150 HD
ATOM     29  O   GLY A   4      -3.433  16.081   8.522  0.00  0.00    -0.273 OA
BRANCH  27  30
ATOM     30  CA  ILE A   5      -4.780  17.488  10.478  0.00  0.00    +0.137 C 
BRANCH  30  31
ATOM     31  CB  ILE A   5      -5.243  16.295  11.331  0.00  0.00    +0.026 C 
ATOM     32  CG2 ILE A   5      -4.802  16.437  12.766  0.00  0.00    +0.002 C 
BRANCH  31  33
ATOM     33  CG1 ILE A   5      -6.812  16.213  11.357  0.00  0.00    +0.002 C 
ATOM     34  CD1 ILE A   5      -7.321  15.043  10.539  0.00  0.00    +0.000 C 
ENDBRANCH  31  33
ENDBRANCH  30  31
BRANCH  30  35
ATOM     35  C   ILE A   5      -5.141  18.841  11.123  0.00  0.00    +0.227 C 
ATOM     36  O   ILE A   5      -4.357  19.428  11.869  0.00  0.00    -0.286 OA
ENDBRANCH  30  35
ENDBRANCH  27  30
ENDBRANCH  25  26
ENDBRANCH  23  25
ENDBRANCH  20  21
ENDBRANCH   2  20
TORSDOF 15
REMARK  Name = ../refined-set-2016/4oma/4oma_pocket.pdb
REMARK  229 active torsions:
REMARK  status: ('A' for Active; 'I' for Inactive)
REMARK    1  A    between atoms: _1  and  _3
REMARK    2  A    between atoms: _3  and  _4
REMARK    3  A    between atoms: _3  and  _6
REMARK    4  A    between atoms: _6  and  _7
REMARK    5  A    between atoms: _10  and  _12
REMARK    6  A    between atoms: _12  and  _13
REMARK    7  A    between atoms: _16  and  _18
REMARK    8  A    between atoms: _18  and  _19
REMARK    9  A    between atoms: _18  and  _21
REMARK   10  A    between atoms: _21  and  _22
REMARK   11  A    between atoms: _24  and  _26
REMARK   12  A    between atoms: _26  and  _27
REMARK   13  A    between atoms: _29  and  _31
REMARK   14  A    between atoms: _31  and  _32
REMARK   15  A    between atoms: _31  and  _34
REMARK   16  A    between atoms: _34  and  _35
REMARK   17  A    between atoms: _38  and  _40
REMARK   18  A    between atoms: _40  and  _41
REMARK   19  A    between atoms: _40  and  _43
REMARK   20  A    between atoms: _43  and  _44
REMARK   21  A    between atoms: _46  and  _48
REMARK   22  A    between atoms: _48  and  _49
REMARK   23  A    between atoms: _52  and  _54
REMARK   24  A    between atoms: _54  and  _55
REMARK   25  A    between atoms: _54  and  _57
REMARK   26  A    between atoms: _57  and  _58
REMARK   27  A    between atoms: _61  and  _63
REMARK   28  A    between atoms: _63  and  _64
REMARK   29  A    between atoms: _63  and  _66
REMARK   30  A    between atoms: _66  and  _67
REMARK   31  A    between atoms: _70  and  _72
REMARK   32  A    between atoms: _72  and  _73
REMARK   33  A    between atoms: _76  and  _78
REMARK   34  A    between atoms: _78  and  _79
REMARK   35  A    between atoms: _78  and  _81
REMARK   36  A    between atoms: _81  and  _82
REMARK   37  A    between atoms: _85  and  _87
REMARK   38  A    between atoms: _87  and  _88
REMARK   39  A    between atoms: _87  and  _90
REMARK   40  A    between atoms: _90  and  _91
REMARK   41  A    between atoms: _96  and  _97
REMARK   42  A    between atoms: _99  and  _101
REMARK   43  A    between atoms: _101  and  _102
REMARK   44  A    between atoms: _104  and  _106
REMARK   45  A    between atoms: _106  and  _107
REMARK   46  A    between atoms: _106  and  _109
REMARK   47  A    between atoms: _111  and  _113
REMARK   48  A    between atoms: _113  and  _114
REMARK   49  A    between atoms: _113  and  _116
REMARK   50  A    between atoms: _116  and  _117
REMARK   51  A    between atoms: _120  and  _122
REMARK   52  A    between atoms: _122  and  _123
REMARK   53  A    between atoms: _122  and  _125
REMARK   54  A    between atoms: _125  and  _126
REMARK   55  A    between atoms: _131  and  _132
REMARK   56  A    between atoms: _134  and  _136
REMARK   57  A    between atoms: _136  and  _137
REMARK   58  A    between atoms: _136  and  _139
REMARK   59  A    between atoms: _139  and  _140
REMARK   60  A    between atoms: _143  and  _145
REMARK   61  A    between atoms: _145  and  _146
REMARK   62  A    between atoms: _145  and  _148
REMARK   63  A    between atoms: _148  and  _149
REMARK   64  A    between atoms: _149  and  _150
REMARK   65  A    between atoms: _153  and  _155
REMARK   66  A    between atoms: _155  and  _156
REMARK   67  A    between atoms: _155  and  _158
REMARK   68  A    between atoms: _158  and  _159
REMARK   69  A    between atoms: _163  and  _164
REMARK   70  A    between atoms: _169  and  _171
REMARK   71  A    between atoms: _171  and  _172
REMARK   72  A    between atoms: _175  and  _177
REMARK   73  A    between atoms: _177  and  _178
REMARK   74  A    between atoms: _177  and  _180
REMARK   75  A    between atoms: _180  and  _181
REMARK   76  A    between atoms: _186  and  _188
REMARK   77  A    between atoms: _188  and  _189
REMARK   78  A    between atoms: _188  and  _191
REMARK   79  A    between atoms: _191  and  _192
REMARK   80  A    between atoms: _195  and  _197
REMARK   81  A    between atoms: _197  and  _198
REMARK   82  A    between atoms: _197  and  _200
REMARK   83  A    between atoms: _200  and  _201
REMARK   84  A    between atoms: _206  and  _208
REMARK   85  A    between atoms: _208  and  _209
REMARK   86  A    between atoms: _208  and  _211
REMARK   87  A    between atoms: _211  and  _212
REMARK   88  A    between atoms: _215  and  _217
REMARK   89  A    between atoms: _217  and  _218
REMARK   90  A    between atoms: _217  and  _220
REMARK   91  A    between atoms: _220  and  _221
REMARK   92  A    between atoms: _227  and  _229
REMARK   93  A    between atoms: _229  and  _230
REMARK   94  A    between atoms: _229  and  _232
REMARK   95  A    between atoms: _232  and  _233
REMARK   96  A    between atoms: _233  and  _234
REMARK   97  A    between atoms: _236  and  _238
REMARK   98  A    between atoms: _238  and  _239
REMARK   99  A    between atoms: _238  and  _241
REMARK  100  A    between atoms: _244  and  _246
REMARK  101  A    between atoms: _246  and  _247
REMARK  102  A    between atoms: _246  and  _249
REMARK  103  A    between atoms: _249  and  _250
REMARK  104  A    between atoms: _255  and  _257
REMARK  105  A    between atoms: _257  and  _258
REMARK  106  A    between atoms: _257  and  _260
REMARK  107  A    between atoms: _260  and  _261
REMARK  108  A    between atoms: _263  and  _265
REMARK  109  A    between atoms: _265  and  _266
REMARK  110  A    between atoms: _265  and  _268
REMARK  111  A    between atoms: _271  and  _273
REMARK  112  A    between atoms: _273  and  _274
REMARK  113  A    between atoms: _273  and  _276
REMARK  114  A    between atoms: _276  and  _277
REMARK  115  A    between atoms: _280  and  _282
REMARK  116  A    between atoms: _282  and  _283
REMARK  117  A    between atoms: _282  and  _285
REMARK  118  A    between atoms: _285  and  _286
REMARK  119  A    between atoms: _286  and  _287
REMARK  120  A    between atoms: _287  and  _288
REMARK  121  A    between atoms: _288  and  _289
REMARK  122  A    between atoms: _293  and  _295
REMARK  123  A    between atoms: _295  and  _296
REMARK  124  A    between atoms: _295  and  _298
REMARK  125  A    between atoms: _301  and  _303
REMARK  126  A    between atoms: _303  and  _304
REMARK  127  A    between atoms: _303  and  _306
REMARK  128  A    between atoms: _306  and  _307
REMARK  129  A    between atoms: _310  and  _312
REMARK  130  A    between atoms: _312  and  _313
REMARK  131  A    between atoms: _315  and  _317
REMARK  132  A    between atoms: _317  and  _318
REMARK  133  A    between atoms: _320  and  _322
REMARK  134  A    between atoms: _322  and  _323
REMARK  135  A    between atoms: _322  and  _325
REMARK  136  A    between atoms: _325  and  _326
REMARK  137  A    between atoms: _329  and  _331
REMARK  138  A    between atoms: _331  and  _332
REMARK  139  A    between atoms: _331  and  _334
REMARK  140  A    between atoms: _334  and  _335
REMARK  141  A    between atoms: _338  and  _340
REMARK  142  A    between atoms: _340  and  _341
REMARK  143  A    between atoms: _344  and  _346
REMARK  144  A    between atoms: _346  and  _347
REMARK  145  A    between atoms: _346  and  _349
REMARK  146  A    between atoms: _352  and  _354
REMARK  147  A    between atoms: _354  and  _355
REMARK  148  A    between atoms: _354  and  _357
REMARK  149  A    between atoms: _357  and  _358
REMARK  150  A    between atoms: _360  and  _362
REMARK  151  A    between atoms: _362  and  _363
REMARK  152  A    between atoms: _362  and  _365
REMARK  153  A    between atoms: _365  and  _366
REMARK  154  A    between atoms: _369  and  _371
REMARK  155  A    between atoms: _371  and  _372
REMARK  156  A    between atoms: _374  and  _376
REMARK  157  A    between atoms: _376  and  _377
REMARK  158  A    between atoms: _376  and  _379
REMARK  159  A    between atoms: _379  and  _380
REMARK  160  A    between atoms: _383  and  _385
REMARK  161  A    between atoms: _385  and  _386
REMARK  162  A    between atoms: _385  and  _388
REMARK  163  A    between atoms: _388  and  _389
REMARK  164  A    between atoms: _389  and  _390
REMARK  165  A    between atoms: _395  and  _397
REMARK  166  A    between atoms: _397  and  _398
REMARK  167  A    between atoms: _397  and  _400
REMARK  168  A    between atoms: _400  and  _401
REMARK  169  A    between atoms: _404  and  _406
REMARK  170  A    between atoms: _406  and  _407
REMARK  171  A    between atoms: _406  and  _409
REMARK  172  A    between atoms: _409  and  _410
REMARK  173  A    between atoms: _410  and  _411
REMARK  174  A    between atoms: _411  and  _412
REMARK  175  A    between atoms: _421  and  _423
REMARK  176  A    between atoms: _423  and  _424
REMARK  177  A    between atoms: _423  and  _426
REMARK  178  A    between atoms: _426  and  _427
REMARK  179  A    between atoms: _429  and  _431
REMARK  180  A    between atoms: _431  and  _432
REMARK  181  A    between atoms: _431  and  _434
REMARK  182  A    between atoms: _434  and  _435
REMARK  183  A    between atoms: _438  and  _440
REMARK  184  A    between atoms: _440  and  _441
REMARK  185  A    between atoms: _440  and  _443
REMARK  186  A    between atoms: _443  and  _444
REMARK  187  A    between atoms: _450  and  _452
REMARK  188  A    between atoms: _452  and  _453
REMARK  189  A    between atoms: _452  and  _455
REMARK  190  A    between atoms: _455  and  _456
REMARK  191  A    between atoms: _462  and  _464
REMARK  192  A    between atoms: _464  and  _465
REMARK  193  A    between atoms: _464  and  _467
REMARK  194  A    between atoms: _467  and  _468
REMARK  195  A    between atoms: _471  and  _473
REMARK  196  A    between atoms: _473  and  _474
REMARK  197  A    between atoms: _473  and  _476
REMARK  198  A    between atoms: _476  and  _477
REMARK  199  A    between atoms: _482  and  _483
REMARK  200  A    between atoms: _485  and  _487
REMARK  201  A    between atoms: _487  and  _488
REMARK  202  A    between atoms: _487  and  _490
REMARK  203  A    between atoms: _490  and  _491
REMARK  204  A    between atoms: _494  and  _496
REMARK  205  A    between atoms: _496  and  _497
REMARK  206  A    between atoms: _496  and  _499
REMARK  207  A    between atoms: _499  and  _500
REMARK  208  A    between atoms: _500  and  _501
REMARK  209  A    between atoms: _501  and  _502
REMARK  210  A    between atoms: _511  and  _513
REMARK  211  A    between atoms: _513  and  _514
REMARK  212  A    between atoms: _513  and  _516
REMARK  213  A    between atoms: _516  and  _517
REMARK  214  A    between atoms: _520  and  _522
REMARK  215  A    between atoms: _522  and  _523
REMARK  216  A    between atoms: _522  and  _525
REMARK  217  A    between atoms: _525  and  _526
REMARK  218  A    between atoms: _529  and  _531
REMARK  219  A    between atoms: _531  and  _532
REMARK  220  A    between atoms: _531  and  _534
REMARK  221  A    between atoms: _534  and  _535
REMARK  222  A    between atoms: _535  and  _536
REMARK  223  A    between atoms: _536  and  _537
REMARK  224  A    between atoms: _537  and  _538
REMARK  225  A    between atoms: _542  and  _544
REMARK  226  A    between atoms: _544  and  _545
REMARK  227  A    between atoms: _547  and  _549
REMARK  228  A    between atoms: _549  and  _550
REMARK  229  A    between atoms: _549  and  _552
REMARK                            x       y       z     vdW  Elec       q    Type
REMARK                         _______ _______ _______ _____ _____    ______ ____
ROOT
ATOM      1  CA  ILE A   1       9.829  14.258  24.761  0.00  0.00    +0.133 C 
ENDROOT
BRANCH   1   2
ATOM      2  N   ILE A   1       8.653  13.475  25.232  0.00  0.00    -0.239 NA
ATOM      3  H   ILE A   1       7.861  14.000  25.655  0.00  0.00    +0.142 HD
ENDBRANCH   1   2
BRANCH   1   4
ATOM      4  C   ILE A   1      10.603  14.788  25.927  0.00  0.00    +0.224 C 
ATOM      5  O   ILE A   1      10.031  15.264  26.882  0.00  0.00    -0.287 OA
ENDBRANCH   1   4
BRANCH   1   6
ATOM      6  CB  ILE A   1       9.428  15.429  23.848  0.00  0.00    +0.023 C 
ATOM      7  CG2 ILE A   1      10.670  16.100  23.293  0.00  0.00    +0.002 C 
BRANCH   6   8
ATOM      8  CG1 ILE A   1       8.525  14.962  22.702  0.00  0.00    +0.002 C 
ATOM      9  CD1 ILE A   1       9.135  13.893  21.816  0.00  0.00    +0.000 C 
ENDBRANCH   6   8
ENDBRANCH   1   6
TORSDOF 4
REMARK  Name = ../refined-set-2016/4oma/4oma_pocket.pdb
REMARK  229 active torsions:
REMARK  status: ('A' for Active; 'I' for Inactive)
REMARK    1  A    between atoms: _1  and  _3
REMARK    2  A    between atoms: _3  and  _4
REMARK    3  A    between atoms: _3  and  _6
REMARK    4  A    between atoms: _6  and  _7
REMARK    5  A    between atoms: _10  and  _12
REMARK    6  A    between atoms: _12  and  _13
REMARK    7  A    between atoms: _16  and  _18
REMARK    8  A    between atoms: _18  and  _19
REMARK    9  A    between atoms: _18  and  _21
REMARK   10  A    between atoms: _21  and  _22
REMARK   11  A    between atoms: _24  and  _26
REMARK   12  A    between atoms: _26  and  _27
REMARK   13  A    between atoms: _29  and  _31
REMARK   14  A    between atoms: _31  and  _32
REMARK   15  A    between atoms: _31  and  _34
REMARK   16  A    between atoms: _34  and  _35
REMARK   17  A    between atoms: _38  and  _40
REMARK   18  A    between atoms: _40  and  _41
REMARK   19  A    between atoms: _40  and  _43
REMARK   20  A    between atoms: _43  and  _44
REMARK   21  A    between atoms: _46  and  _48
REMARK   22  A    between atoms: _48  and  _49
REMARK   23  A    between atoms: _52  and  _54
REMARK   24  A    between atoms: _54  and  _55
REMARK   25  A    between atoms: _54  and  _57
REMARK   26  A    between atoms: _57  and  _58
REMARK   27  A    between atoms: _61  and  _63
REMARK   28  A    between atoms: _63  and  _64
REMARK   29  A    between atoms: _63  and  _66
REMARK   30  A    between atoms: _66  and  _67
REMARK   31  A    between atoms: _70  and  _72
REMARK   32  A    between atoms: _72  and  _73
REMARK   33  A    between atoms: _76  and  _78
REMARK   34  A    between atoms: _78  and  _79
REMARK   35  A    between atoms: _78  and  _81
REMARK   36  A    between atoms: _81  and  _82
REMARK   37  A    between atoms: _85  and  _87
REMARK   38  A    between atoms: _87  and  _88
REMARK   39  A    between atoms: _87  and  _90
REMARK   40  A    between atoms: _90  and  _91
REMARK   41  A    between atoms: _96  and  _97
REMARK   42  A    between atoms: _99  and  _101
REMARK   43  A    between atoms: _101  and  _102
REMARK   44  A    between atoms: _104  and  _106
REMARK   45  A    between atoms: _106  and  _107
REMARK   46  A    between atoms: _106  and  _109
REMARK   47  A    between atoms: _111  and  _113
REMARK   48  A    between atoms: _113  and  _114
REMARK   49  A    between atoms: _113  and  _116
REMARK   50  A    between atoms: _116  and  _117
REMARK   51  A    between atoms: _120  and  _122
REMARK   52  A    between atoms: _122  and  _123
REMARK   53  A    between atoms: _122  and  _125
REMARK   54  A    between atoms: _125  and  _126
REMARK   55  A    between atoms: _131  and  _132
REMARK   56  A    between atoms: _134  and  _136
REMARK   57  A    between atoms: _136  and  _137
REMARK   58  A    between atoms: _136  and  _139
REMARK   59  A    between atoms: _139  and  _140
REMARK   60  A    between atoms: _143  and  _145
REMARK   61  A    between atoms: _145  and  _146
REMARK   62  A    between atoms: _145  and  _148
REMARK   63  A    between atoms: _148  and  _149
REMARK   64  A    between atoms: _149  and  _150
REMARK   65  A    between atoms: _153  and  _155
REMARK   66  A    between atoms: _155  and  _156
REMARK   67  A    between atoms: _155  and  _158
REMARK   68  A    between atoms: _158  and  _159
REMARK   69  A    between atoms: _163  and  _164
REMARK   70  A    between atoms: _169  and  _171
REMARK   71  A    between atoms: _171  and  _172
REMARK   72  A    between atoms: _175  and  _177
REMARK   73  A    between atoms: _177  and  _178
REMARK   74  A    between atoms: _177  and  _180
REMARK   75  A    between atoms: _180  and  _181
REMARK   76  A    between atoms: _186  and  _188
REMARK   77  A    between atoms: _188  and  _189
REMARK   78  A    between atoms: _188  and  _191
REMARK   79  A    between atoms: _191  and  _192
REMARK   80  A    between atoms: _195  and  _197
REMARK   81  A    between atoms: _197  and  _198
REMARK   82  A    between atoms: _197  and  _200
REMARK   83  A    between atoms: _200  and  _201
REMARK   84  A    between atoms: _206  and  _208
REMARK   85  A    between atoms: _208  and  _209
REMARK   86  A    between atoms: _208  and  _211
REMARK   87  A    between atoms: _211  and  _212
REMARK   88  A    between atoms: _215  and  _217
REMARK   89  A    between atoms: _217  and  _218
REMARK   90  A    between atoms: _217  and  _220
REMARK   91  A    between atoms: _220  and  _221
REMARK   92  A    between atoms: _227  and  _229
REMARK   93  A    between atoms: _229  and  _230
REMARK   94  A    between atoms: _229  and  _232
REMARK   95  A    between atoms: _232  and  _233
REMARK   96  A    between atoms: _233  and  _234
REMARK   97  A    between atoms: _236  and  _238
REMARK   98  A    between atoms: _238  and  _239
REMARK   99  A    between atoms: _238  and  _241
REMARK  100  A    between atoms: _244  and  _246
REMARK  101  A    between atoms: _246  and  _247
REMARK  102  A    between atoms: _246  and  _249
REMARK  103  A    between atoms: _249  and  _250
REMARK  104  A    between atoms: _255  and  _257
REMARK  105  A    between atoms: _257  and  _258
REMARK  106  A    between atoms: _257  and  _260
REMARK  107  A    between atoms: _260  and  _261
REMARK  108  A    between atoms: _263  and  _265
REMARK  109  A    between atoms: _265  and  _266
REMARK  110  A    between atoms: _265  and  _268
REMARK  111  A    between atoms: _271  and  _273
REMARK  112  A    between atoms: _273  and  _274
REMARK  113  A    between atoms: _273  and  _276
REMARK  114  A    between atoms: _276  and  _277
REMARK  115  A    between atoms: _280  and  _282
REMARK  116  A    between atoms: _282  and  _283
REMARK  117  A    between atoms: _282  and  _285
REMARK  118  A    between atoms: _285  and  _286
REMARK  119  A    between atoms: _286  and  _287
REMARK  120  A    between atoms: _287  and  _288
REMARK  121  A    between atoms: _288  and  _289
REMARK  122  A    between atoms: _293  and  _295
REMARK  123  A    between atoms: _295  and  _296
REMARK  124  A    between atoms: _295  and  _298
REMARK  125  A    between atoms: _301  and  _303
REMARK  126  A    between atoms: _303  and  _304
REMARK  127  A    between atoms: _303  and  _306
REMARK  128  A    between atoms: _306  and  _307
REMARK  129  A    between atoms: _310  and  _312
REMARK  130  A    between atoms: _312  and  _313
REMARK  131  A    between atoms: _315  and  _317
REMARK  132  A    between atoms: _317  and  _318
REMARK  133  A    between atoms: _320  and  _322
REMARK  134  A    between atoms: _322  and  _323
REMARK  135  A    between atoms: _322  and  _325
REMARK  136  A    between atoms: _325  and  _326
REMARK  137  A    between atoms: _329  and  _331
REMARK  138  A    between atoms: _331  and  _332
REMARK  139  A    between atoms: _331  and  _334
REMARK  140  A    between atoms: _334  and  _335
REMARK  141  A    between atoms: _338  and  _340
REMARK  142  A    between atoms: _340  and  _341
REMARK  143  A    between atoms: _344  and  _346
REMARK  144  A    between atoms: _346  and  _347
REMARK  145  A    between atoms: _346  and  _349
REMARK  146  A    between atoms: _352  and  _354
REMARK  147  A    between atoms: _354  and  _355
REMARK  148  A    between atoms: _354  and  _357
REMARK  149  A    between atoms: _357  and  _358
REMARK  150  A    between atoms: _360  and  _362
REMARK  151  A    between atoms: _362  and  _363
REMARK  152  A    between atoms: _362  and  _365
REMARK  153  A    between atoms: _365  and  _366
REMARK  154  A    between atoms: _369  and  _371
REMARK  155  A    between atoms: _371  and  _372
REMARK  156  A    between atoms: _374  and  _376
REMARK  157  A    between atoms: _376  and  _377
REMARK  158  A    between atoms: _376  and  _379
REMARK  159  A    between atoms: _379  and  _380
REMARK  160  A    between atoms: _383  and  _385
REMARK  161  A    between atoms: _385  and  _386
REMARK  162  A    between atoms: _385  and  _388
REMARK  163  A    between atoms: _388  and  _389
REMARK  164  A    between atoms: _389  and  _390
REMARK  165  A    between atoms: _395  and  _397
REMARK  166  A    between atoms: _397  and  _398
REMARK  167  A    between atoms: _397  and  _400
REMARK  168  A    between atoms: _400  and  _401
REMARK  169  A    between atoms: _404  and  _406
REMARK  170  A    between atoms: _406  and  _407
REMARK  171  A    between atoms: _406  and  _409
REMARK  172  A    between atoms: _409  and  _410
REMARK  173  A    between atoms: _410  and  _411
REMARK  174  A    between atoms: _411  and  _412
REMARK  175  A    between atoms: _421  and  _423
REMARK  176  A    between atoms: _423  and  _424
REMARK  177  A    between atoms: _423  and  _426
REMARK  178  A    between atoms: _426  and  _427
REMARK  179  A    between atoms: _429  and  _431
REMARK  180  A    between atoms: _431  and  _432
REMARK  181  A    between atoms: _431  and  _434
REMARK  182  A    between atoms: _434  and  _435
REMARK  183  A    between atoms: _438  and  _440
REMARK  184  A    between atoms: _440  and  _441
REMARK  185  A    between atoms: _440  and  _443
REMARK  186  A    between atoms: _443  and  _444
REMARK  187  A    between atoms: _450  and  _452
REMARK  188  A    between atoms: _452  and  _453
REMARK  189  A    between atoms: _452  and  _455
REMARK  190  A    between atoms: _455  and  _456
REMARK  191  A    between atoms: _462  and  _464
REMARK  192  A    between atoms: _464  and  _465
REMARK  193  A    between atoms: _464  and  _467
REMARK  194  A    between atoms: _467  and  _468
REMARK  195  A    between atoms: _471  and  _473
REMARK  196  A    between atoms: _473  and  _474
REMARK  197  A    between atoms: _473  and  _476
REMARK  198  A    between atoms: _476  and  _477
REMARK  199  A    between atoms: _482  and  _483
REMARK  200  A    between atoms: _485  and  _487
REMARK  201  A    between atoms: _487  and  _488
REMARK  202  A    between atoms: _487  and  _490
REMARK  203  A    between atoms: _490  and  _491
REMARK  204  A    between atoms: _494  and  _496
REMARK  205  A    between atoms: _496  and  _497
REMARK  206  A    between atoms: _496  and  _499
REMARK  207  A    between atoms: _499  and  _500
REMARK  208  A    between atoms: _500  and  _501
REMARK  209  A    between atoms: _501  and  _502
REMARK  210  A    between atoms: _511  and  _513
REMARK  211  A    between atoms: _513  and  _514
REMARK  212  A    between atoms: _513  and  _516
REMARK  213  A    between atoms: _516  and  _517
REMARK  214  A    between atoms: _520  and  _522
REMARK  215  A    between atoms: _522  and  _523
REMARK  216  A    between atoms: _522  and  _525
REMARK  217  A    between atoms: _525  and  _526
REMARK  218  A    between atoms: _529  and  _531
REMARK  219  A    between atoms: _531  and  _532
REMARK  220  A    between atoms: _531  and  _534
REMARK  221  A    between atoms: _534  and  _535
REMARK  222  A    between atoms: _535  and  _536
REMARK  223  A    between atoms: _536  and  _537
REMARK  224  A    between atoms: _537  and  _538
REMARK  225  A    between atoms: _542  and  _544
REMARK  226  A    between atoms: _544  and  _545
REMARK  227  A    between atoms: _547  and  _549
REMARK  228  A    between atoms: _549  and  _550
REMARK  229  A    between atoms: _549  and  _552
REMARK                            x       y       z     vdW  Elec       q    Type
REMARK                         _______ _______ _______ _____ _____    ______ ____
ROOT
ATOM      1  CA  SER A   3      11.247  13.751  13.991  0.00  0.00    +0.178 C 
ENDROOT
BRANCH   1   3
ATOM      2  C   VAL A   2      13.548  13.651  13.413  0.00  0.00    +0.241 C 
ATOM      3  N   SER A   3      12.544  14.389  13.725  0.00  0.00    -0.295 N 
ATOM      4  H   SER A   3      12.647  15.422  13.788  0.00  0.00    +0.150 HD
ATOM      5  O   VAL A   2      13.385  12.442  13.152  0.00  0.00    -0.273 OA
BRANCH   2   6
ATOM      6  CA  VAL A   2      14.938  14.355  13.344  0.00  0.00    +0.148 C 
BRANCH   6   9
ATOM      7  C   ALA A   1      16.489  12.627  13.896  0.00  0.00    +0.238 C 
ATOM      8  O   ALA A   1      16.333  12.810  15.074  0.00  0.00    -0.274 OA
ATOM      9  N   VAL A   2      15.892  13.353  12.970  0.00  0.00    -0.297 N 
ATOM     10  H   VAL A   2      16.114  13.198  11.966  0.00  0.00    +0.150 HD
BRANCH   7  11
ATOM     11  CA  ALA A   1      17.315  11.459  13.441  0.00  0.00    +0.145 C 
ATOM     12  CB  ALA A   1      16.371  10.322  13.140  0.00  0.00    +0.028 C 
BRANCH  11  13
ATOM     13  N   ALA A   1      18.214  11.049  14.493  0.00  0.00    -0.238 NA
ATOM     14  H   ALA A   1      18.101  11.438  15.451  0.00  0.00    +0.142 HD
ENDBRANCH  11  13
ENDBRANCH   7  11
ENDBRANCH   6   9
BRANCH   6  15
ATOM     15  CB  VAL A   2      14.985  15.597  12.421  0.00  0.00    +0.027 C 
ATOM     16  CG2 VAL A   2      16.402  16.091  12.346  0.00  0.00    +0.002 C 
ATOM     17  CG1 VAL A   2      14.422  15.332  11.008  0.00  0.00    +0.002 C 
ENDBRANCH   6  15
ENDBRANCH   2   6
ENDBRANCH   1   3
BRANCH   1  18
ATOM     18  C   SER A   3      11.167  13.201  15.431  0.00  0.00    +0.243 C 
ATOM     19  O   SER A   3      12.150  13.155  16.177  0.00  0.00    -0.273 OA
ATOM     20  N   LEU A   4       9.977  12.767  15.813  0.00  0.00    -0.297 N 
ATOM     21  H   LEU A   4       9.230  12.688  15.093  0.00  0.00    +0.150 HD
BRANCH  20  22
ATOM     22  CA  LEU A   4       9.651  12.393  17.182  0.00  0.00    +0.149 C 
BRANCH  22  23
ATOM     23  C   LEU A   4       8.330  11.655  17.109  0.00  0.00    +0.241 C 
ATOM     24  N   GLY A   5       8.015  10.958  18.164  0.00  0.00    -0.296 N 
ATOM     25  H   GLY A   5       8.698  10.877  18.944  0.00  0.00    +0.150 HD
ATOM     26  O   LEU A   4       7.657  11.687  16.077  0.00  0.00    -0.273 OA
BRANCH  24  27
ATOM     27  CA  GLY A   5       6.738  10.296  18.271  0.00  0.00    +0.163 C 
BRANCH  27  28
ATOM     28  C   GLY A   5       6.613   8.986  17.531  0.00  0.00    +0.229 C 
ATOM     29  O   GLY A   5       5.478   8.566  17.250  0.00  0.00    -0.286 OA
ENDBRANCH  27  28
ENDBRANCH  24  27
ENDBRANCH  22  23
BRANCH  22  30
ATOM     30  CB  LEU A   4       9.447  13.627  18.100  0.00  0.00    +0.029 C 
BRANCH  30  31
ATOM     31  CG  LEU A   4       8.353  14.621  17.640  0.00  0.00    +0.002 C 
ATOM     32  CD2 LEU A   4       7.178  14.836  18.608  0.00  0.00    +0.000 C 
ATOM     33  CD1 LEU A   4       8.989  15.954  17.291  0.00  0.00    +0.000 C 
ENDBRANCH  30  31
ENDBRANCH  22  30
ENDBRANCH  20  22
ENDBRANCH   1  18
BRANCH   1  34
ATOM     34  CB  SER A   3      10.862  12.674  12.957  0.00  0.00    +0.166 C 
BRANCH  34  35
ATOM     35  OG  SER A   3       9.356  12.569  12.892  0.00  0.00    -0.380 OA
ATOM     36  H   SER A   3       9.103  11.879  12.229  0.00  0.00    +0.211 HD
ENDBRANCH  34  35
ENDBRANCH   1  34
TORSDOF 15
REMARK  Name = ../refined-set-2016/4oma/4oma_pocket.pdb
REMARK  229 active torsions:
REMARK  status: ('A' for Active; 'I' for Inactive)
REMARK    1  A    between atoms: _1  and  _3
REMARK    2  A    between atoms: _3  and  _4
REMARK    3  A    between atoms: _3  and  _6
REMARK    4  A    between atoms: _6  and  _7
REMARK    5  A    between atoms: _10  and  _12
REMARK    6  A    between atoms: _12  and  _13
REMARK    7  A    between atoms: _16  and  _18
REMARK    8  A    between atoms: _18  and  _19
REMARK    9  A    between atoms: _18  and  _21
REMARK   10  A    between atoms: _21  and  _22
REMARK   11  A    between atoms: _24  and  _26
REMARK   12  A    between atoms: _26  and  _27
REMARK   13  A    between atoms: _29  and  _31
REMARK   14  A    between atoms: _31  and  _32
REMARK   15  A    between atoms: _31  and  _34
REMARK   16  A    between atoms: _34  and  _35
REMARK   17  A    between atoms: _38  and  _40
REMARK   18  A    between atoms: _40  and  _41
REMARK   19  A    between atoms: _40  and  _43
REMARK   20  A    between atoms: _43  and  _44
REMARK   21  A    between atoms: _46  and  _48
REMARK   22  A    between atoms: _48  and  _49
REMARK   23  A    between atoms: _52  and  _54
REMARK   24  A    between atoms: _54  and  _55
REMARK   25  A    between atoms: _54  and  _57
REMARK   26  A    between atoms: _57  and  _58
REMARK   27  A    between atoms: _61  and  _63
REMARK   28  A    between atoms: _63  and  _64
REMARK   29  A    between atoms: _63  and  _66
REMARK   30  A    between atoms: _66  and  _67
REMARK   31  A    between atoms: _70  and  _72
REMARK   32  A    between atoms: _72  and  _73
REMARK   33  A    between atoms: _76  and  _78
REMARK   34  A    between atoms: _78  and  _79
REMARK   35  A    between atoms: _78  and  _81
REMARK   36  A    between atoms: _81  and  _82
REMARK   37  A    between atoms: _85  and  _87
REMARK   38  A    between atoms: _87  and  _88
REMARK   39  A    between atoms: _87  and  _90
REMARK   40  A    between atoms: _90  and  _91
REMARK   41  A    between atoms: _96  and  _97
REMARK   42  A    between atoms: _99  and  _101
REMARK   43  A    between atoms: _101  and  _102
REMARK   44  A    between atoms: _104  and  _106
REMARK   45  A    between atoms: _106  and  _107
REMARK   46  A    between atoms: _106  and  _109
REMARK   47  A    between atoms: _111  and  _113
REMARK   48  A    between atoms: _113  and  _114
REMARK   49  A    between atoms: _113  and  _116
REMARK   50  A    between atoms: _116  and  _117
REMARK   51  A    between atoms: _120  and  _122
REMARK   52  A    between atoms: _122  and  _123
REMARK   53  A    between atoms: _122  and  _125
REMARK   54  A    between atoms: _125  and  _126
REMARK   55  A    between atoms: _131  and  _132
REMARK   56  A    between atoms: _134  and  _136
REMARK   57  A    between atoms: _136  and  _137
REMARK   58  A    between atoms: _136  and  _139
REMARK   59  A    between atoms: _139  and  _140
REMARK   60  A    between atoms: _143  and  _145
REMARK   61  A    between atoms: _145  and  _146
REMARK   62  A    between atoms: _145  and  _148
REMARK   63  A    between atoms: _148  and  _149
REMARK   64  A    between atoms: _149  and  _150
REMARK   65  A    between atoms: _153  and  _155
REMARK   66  A    between atoms: _155  and  _156
REMARK   67  A    between atoms: _155  and  _158
REMARK   68  A    between atoms: _158  and  _159
REMARK   69  A    between atoms: _163  and  _164
REMARK   70  A    between atoms: _169  and  _171
REMARK   71  A    between atoms: _171  and  _172
REMARK   72  A    between atoms: _175  and  _177
REMARK   73  A    between atoms: _177  and  _178
REMARK   74  A    between atoms: _177  and  _180
REMARK   75  A    between atoms: _180  and  _181
REMARK   76  A    between atoms: _186  and  _188
REMARK   77  A    between atoms: _188  and  _189
REMARK   78  A    between atoms: _188  and  _191
REMARK   79  A    between atoms: _191  and  _192
REMARK   80  A    between atoms: _195  and  _197
REMARK   81  A    between atoms: _197  and  _198
REMARK   82  A    between atoms: _197  and  _200
REMARK   83  A    between atoms: _200  and  _201
REMARK   84  A    between atoms: _206  and  _208
REMARK   85  A    between atoms: _208  and  _209
REMARK   86  A    between atoms: _208  and  _211
REMARK   87  A    between atoms: _211  and  _212
REMARK   88  A    between atoms: _215  and  _217
REMARK   89  A    between atoms: _217  and  _218
REMARK   90  A    between atoms: _217  and  _220
REMARK   91  A    between atoms: _220  and  _221
REMARK   92  A    between atoms: _227  and  _229
REMARK   93  A    between atoms: _229  and  _230
REMARK   94  A    between atoms: _229  and  _232
REMARK   95  A    between atoms: _232  and  _233
REMARK   96  A    between atoms: _233  and  _234
REMARK   97  A    between atoms: _236  and  _238
REMARK   98  A    between atoms: _238  and  _239
REMARK   99  A    between atoms: _238  and  _241
REMARK  100  A    between atoms: _244  and  _246
REMARK  101  A    between atoms: _246  and  _247
REMARK  102  A    between atoms: _246  and  _249
REMARK  103  A    between atoms: _249  and  _250
REMARK  104  A    between atoms: _255  and  _257
REMARK  105  A    between atoms: _257  and  _258
REMARK  106  A    between atoms: _257  and  _260
REMARK  107  A    between atoms: _260  and  _261
REMARK  108  A    between atoms: _263  and  _265
REMARK  109  A    between atoms: _265  and  _266
REMARK  110  A    between atoms: _265  and  _268
REMARK  111  A    between atoms: _271  and  _273
REMARK  112  A    between atoms: _273  and  _274
REMARK  113  A    between atoms: _273  and  _276
REMARK  114  A    between atoms: _276  and  _277
REMARK  115  A    between atoms: _280  and  _282
REMARK  116  A    between atoms: _282  and  _283
REMARK  117  A    between atoms: _282  and  _285
REMARK  118  A    between atoms: _285  and  _286
REMARK  119  A    between atoms: _286  and  _287
REMARK  120  A    between atoms: _287  and  _288
REMARK  121  A    between atoms: _288  and  _289
REMARK  122  A    between atoms: _293  and  _295
REMARK  123  A    between atoms: _295  and  _296
REMARK  124  A    between atoms: _295  and  _298
REMARK  125  A    between atoms: _301  and  _303
REMARK  126  A    between atoms: _303  and  _304
REMARK  127  A    between atoms: _303  and  _306
REMARK  128  A    between atoms: _306  and  _307
REMARK  129  A    between atoms: _310  and  _312
REMARK  130  A    between atoms: _312  and  _313
REMARK  131  A    between atoms: _315  and  _317
REMARK  132  A    between atoms: _317  and  _318
REMARK  133  A    between atoms: _320  and  _322
REMARK  134  A    between atoms: _322  and  _323
REMARK  135  A    between atoms: _322  and  _325
REMARK  136  A    between atoms: _325  and  _326
REMARK  137  A    between atoms: _329  and  _331
REMARK  138  A    between atoms: _331  and  _332
REMARK  139  A    between atoms: _331  and  _334
REMARK  140  A    between atoms: _334  and  _335
REMARK  141  A    between atoms: _338  and  _340
REMARK  142  A    between atoms: _340  and  _341
REMARK  143  A    between atoms: _344  and  _346
REMARK  144  A    between atoms: _346  and  _347
REMARK  145  A    between atoms: _346  and  _349
REMARK  146  A    between atoms: _352  and  _354
REMARK  147  A    between atoms: _354  and  _355
REMARK  148  A    between atoms: _354  and  _357
REMARK  149  A    between atoms: _357  and  _358
REMARK  150  A    between atoms: _360  and  _362
REMARK  151  A    between atoms: _362  and  _363
REMARK  152  A    between atoms: _362  and  _365
REMARK  153  A    between atoms: _365  and  _366
REMARK  154  A    between atoms: _369  and  _371
REMARK  155  A    between atoms: _371  and  _372
REMARK  156  A    between atoms: _374  and  _376
REMARK  157  A    between atoms: _376  and  _377
REMARK  158  A    between atoms: _376  and  _379
REMARK  159  A    between atoms: _379  and  _380
REMARK  160  A    between atoms: _383  and  _385
REMARK  161  A    between atoms: _385  and  _386
REMARK  162  A    between atoms: _385  and  _388
REMARK  163  A    between atoms: _388  and  _389
REMARK  164  A    between atoms: _389  and  _390
REMARK  165  A    between atoms: _395  and  _397
REMARK  166  A    between atoms: _397  and  _398
REMARK  167  A    between atoms: _397  and  _400
REMARK  168  A    between atoms: _400  and  _401
REMARK  169  A    between atoms: _404  and  _406
REMARK  170  A    between atoms: _406  and  _407
REMARK  171  A    between atoms: _406  and  _409
REMARK  172  A    between atoms: _409  and  _410
REMARK  173  A    between atoms: _410  and  _411
REMARK  174  A    between atoms: _411  and  _412
REMARK  175  A    between atoms: _421  and  _423
REMARK  176  A    between atoms: _423  and  _424
REMARK  177  A    between atoms: _423  and  _426
REMARK  178  A    between atoms: _426  and  _427
REMARK  179  A    between atoms: _429  and  _431
REMARK  180  A    between atoms: _431  and  _432
REMARK  181  A    between atoms: _431  and  _434
REMARK  182  A    between atoms: _434  and  _435
REMARK  183  A    between atoms: _438  and  _440
REMARK  184  A    between atoms: _440  and  _441
REMARK  185  A    between atoms: _440  and  _443
REMARK  186  A    between atoms: _443  and  _444
REMARK  187  A    between atoms: _450  and  _452
REMARK  188  A    between atoms: _452  and  _453
REMARK  189  A    between atoms: _452  and  _455
REMARK  190  A    between atoms: _455  and  _456
REMARK  191  A    between atoms: _462  and  _464
REMARK  192  A    between atoms: _464  and  _465
REMARK  193  A    between atoms: _464  and  _467
REMARK  194  A    between atoms: _467  and  _468
REMARK  195  A    between atoms: _471  and  _473
REMARK  196  A    between atoms: _473  and  _474
REMARK  197  A    between atoms: _473  and  _476
REMARK  198  A    between atoms: _476  and  _477
REMARK  199  A    between atoms: _482  and  _483
REMARK  200  A    between atoms: _485  and  _487
REMARK  201  A    between atoms: _487  and  _488
REMARK  202  A    between atoms: _487  and  _490
REMARK  203  A    between atoms: _490  and  _491
REMARK  204  A    between atoms: _494  and  _496
REMARK  205  A    between atoms: _496  and  _497
REMARK  206  A    between atoms: _496  and  _499
REMARK  207  A    between atoms: _499  and  _500
REMARK  208  A    between atoms: _500  and  _501
REMARK  209  A    between atoms: _501  and  _502
REMARK  210  A    between atoms: _511  and  _513
REMARK  211  A    between atoms: _513  and  _514
REMARK  212  A    between atoms: _513  and  _516
REMARK  213  A    between atoms: _516  and  _517
REMARK  214  A    between atoms: _520  and  _522
REMARK  215  A    between atoms: _522  and  _523
REMARK  216  A    between atoms: _522  and  _525
REMARK  217  A    between atoms: _525  and  _526
REMARK  218  A    between atoms: _529  and  _531
REMARK  219  A    between atoms: _531  and  _532
REMARK  220  A    between atoms: _531  and  _534
REMARK  221  A    between atoms: _534  and  _535
REMARK  222  A    between atoms: _535  and  _536
REMARK  223  A    between atoms: _536  and  _537
REMARK  224  A    between atoms: _537  and  _538
REMARK  225  A    between atoms: _542  and  _544
REMARK  226  A    between atoms: _544  and  _545
REMARK  227  A    between atoms: _547  and  _549
REMARK  228  A    between atoms: _549  and  _550
REMARK  229  A    between atoms: _549  and  _552
REMARK                            x       y       z     vdW  Elec       q    Type
REMARK                         _______ _______ _______ _____ _____    ______ ____
ROOT
ATOM      1  CA  LEU A   1      15.223   9.123  18.444  0.00  0.00    +0.133 C 
ENDROOT
BRANCH   1   2
ATOM      2  N   LEU A   1      14.520   8.214  19.343  0.00  0.00    -0.239 NA
ATOM      3  H   LEU A   1      13.767   8.633  19.925  0.00  0.00    +0.142 HD
ENDBRANCH   1   2
BRANCH   1   4
ATOM      4  C   LEU A   1      15.883  10.173  19.256  0.00  0.00    +0.224 C 
ATOM      5  O   LEU A   1      15.372  10.633  20.302  0.00  0.00    -0.287 OA
ENDBRANCH   1   4
BRANCH   1   6
ATOM      6  CB  LEU A   1      14.308   9.830  17.435  0.00  0.00    +0.025 C 
BRANCH   6   7
ATOM      7  CG  LEU A   1      13.383   8.859  16.688  0.00  0.00    +0.002 C 
ATOM      8  CD2 LEU A   1      14.066   7.697  15.980  0.00  0.00    +0.000 C 
ATOM      9  CD1 LEU A   1      12.462   9.632  15.756  0.00  0.00    +0.000 C 
ENDBRANCH   6   7
ENDBRANCH   1   6
TORSDOF 4
REMARK  Name = ../refined-set-2016/4oma/4oma_pocket.pdb
REMARK  229 active torsions:
REMARK  status: ('A' for Active; 'I' for Inactive)
REMARK    1  A    between atoms: _1  and  _3
REMARK    2  A    between atoms: _3  and  _4
REMARK    3  A    between atoms: _3  and  _6
REMARK    4  A    between atoms: _6  and  _7
REMARK    5  A    between atoms: _10  and  _12
REMARK    6  A    between atoms: _12  and  _13
REMARK    7  A    between atoms: _16  and  _18
REMARK    8  A    between atoms: _18  and  _19
REMARK    9  A    between atoms: _18  and  _21
REMARK   10  A    between atoms: _21  and  _22
REMARK   11  A    between atoms: _24  and  _26
REMARK   12  A    between atoms: _26  and  _27
REMARK   13  A    between atoms: _29  and  _31
REMARK   14  A    between atoms: _31  and  _32
REMARK   15  A    between atoms: _31  and  _34
REMARK   16  A    between atoms: _34  and  _35
REMARK   17  A    between atoms: _38  and  _40
REMARK   18  A    between atoms: _40  and  _41
REMARK   19  A    between atoms: _40  and  _43
REMARK   20  A    between atoms: _43  and  _44
REMARK   21  A    between atoms: _46  and  _48
REMARK   22  A    between atoms: _48  and  _49
REMARK   23  A    between atoms: _52  and  _54
REMARK   24  A    between atoms: _54  and  _55
REMARK   25  A    between atoms: _54  and  _57
REMARK   26  A    between atoms: _57  and  _58
REMARK   27  A    between atoms: _61  and  _63
REMARK   28  A    between atoms: _63  and  _64
REMARK   29  A    between atoms: _63  and  _66
REMARK   30  A    between atoms: _66  and  _67
REMARK   31  A    between atoms: _70  and  _72
REMARK   32  A    between atoms: _72  and  _73
REMARK   33  A    between atoms: _76  and  _78
REMARK   34  A    between atoms: _78  and  _79
REMARK   35  A    between atoms: _78  and  _81
REMARK   36  A    between atoms: _81  and  _82
REMARK   37  A    between atoms: _85  and  _87
REMARK   38  A    between atoms: _87  and  _88
REMARK   39  A    between atoms: _87  and  _90
REMARK   40  A    between atoms: _90  and  _91
REMARK   41  A    between atoms: _96  and  _97
REMARK   42  A    between atoms: _99  and  _101
REMARK   43  A    between atoms: _101  and  _102
REMARK   44  A    between atoms: _104  and  _106
REMARK   45  A    between atoms: _106  and  _107
REMARK   46  A    between atoms: _106  and  _109
REMARK   47  A    between atoms: _111  and  _113
REMARK   48  A    between atoms: _113  and  _114
REMARK   49  A    between atoms: _113  and  _116
REMARK   50  A    between atoms: _116  and  _117
REMARK   51  A    between atoms: _120  and  _122
REMARK   52  A    between atoms: _122  and  _123
REMARK   53  A    between atoms: _122  and  _125
REMARK   54  A    between atoms: _125  and  _126
REMARK   55  A    between atoms: _131  and  _132
REMARK   56  A    between atoms: _134  and  _136
REMARK   57  A    between atoms: _136  and  _137
REMARK   58  A    between atoms: _136  and  _139
REMARK   59  A    between atoms: _139  and  _140
REMARK   60  A    between atoms: _143  and  _145
REMARK   61  A    between atoms: _145  and  _146
REMARK   62  A    between atoms: _145  and  _148
REMARK   63  A    between atoms: _148  and  _149
REMARK   64  A    between atoms: _149  and  _150
REMARK   65  A    between atoms: _153  and  _155
REMARK   66  A    between atoms: _155  and  _156
REMARK   67  A    between atoms: _155  and  _158
REMARK   68  A    between atoms: _158  and  _159
REMARK   69  A    between atoms: _163  and  _164
REMARK   70  A    between atoms: _169  and  _171
REMARK   71  A    between atoms: _171  and  _172
REMARK   72  A    between atoms: _175  and  _177
REMARK   73  A    between atoms: _177  and  _178
REMARK   74  A    between atoms: _177  and  _180
REMARK   75  A    between atoms: _180  and  _181
REMARK   76  A    between atoms: _186  and  _188
REMARK   77  A    between atoms: _188  and  _189
REMARK   78  A    between atoms: _188  and  _191
REMARK   79  A    between atoms: _191  and  _192
REMARK   80  A    between atoms: _195  and  _197
REMARK   81  A    between atoms: _197  and  _198
REMARK   82  A    between atoms: _197  and  _200
REMARK   83  A    between atoms: _200  and  _201
REMARK   84  A    between atoms: _206  and  _208
REMARK   85  A    between atoms: _208  and  _209
REMARK   86  A    between atoms: _208  and  _211
REMARK   87  A    between atoms: _211  and  _212
REMARK   88  A    between atoms: _215  and  _217
REMARK   89  A    between atoms: _217  and  _218
REMARK   90  A    between atoms: _217  and  _220
REMARK   91  A    between atoms: _220  and  _221
REMARK   92  A    between atoms: _227  and  _229
REMARK   93  A    between atoms: _229  and  _230
REMARK   94  A    between atoms: _229  and  _232
REMARK   95  A    between atoms: _232  and  _233
REMARK   96  A    between atoms: _233  and  _234
REMARK   97  A    between atoms: _236  and  _238
REMARK   98  A    between atoms: _238  and  _239
REMARK   99  A    between atoms: _238  and  _241
REMARK  100  A    between atoms: _244  and  _246
REMARK  101  A    between atoms: _246  and  _247
REMARK  102  A    between atoms: _246  and  _249
REMARK  103  A    between atoms: _249  and  _250
REMARK  104  A    between atoms: _255  and  _257
REMARK  105  A    between atoms: _257  and  _258
REMARK  106  A    between atoms: _257  and  _260
REMARK  107  A    between atoms: _260  and  _261
REMARK  108  A    between atoms: _263  and  _265
REMARK  109  A    between atoms: _265  and  _266
REMARK  110  A    between atoms: _265  and  _268
REMARK  111  A    between atoms: _271  and  _273
REMARK  112  A    between atoms: _273  and  _274
REMARK  113  A    between atoms: _273  and  _276
REMARK  114  A    between atoms: _276  and  _277
REMARK  115  A    between atoms: _280  and  _282
REMARK  116  A    between atoms: _282  and  _283
REMARK  117  A    between atoms: _282  and  _285
REMARK  118  A    between atoms: _285  and  _286
REMARK  119  A    between atoms: _286  and  _287
REMARK  120  A    between atoms: _287  and  _288
REMARK  121  A    between atoms: _288  and  _289
REMARK  122  A    between atoms: _293  and  _295
REMARK  123  A    between atoms: _295  and  _296
REMARK  124  A    between atoms: _295  and  _298
REMARK  125  A    between atoms: _301  and  _303
REMARK  126  A    between atoms: _303  and  _304
REMARK  127  A    between atoms: _303  and  _306
REMARK  128  A    between atoms: _306  and  _307
REMARK  129  A    between atoms: _310  and  _312
REMARK  130  A    between atoms: _312  and  _313
REMARK  131  A    between atoms: _315  and  _317
REMARK  132  A    between atoms: _317  and  _318
REMARK  133  A    between atoms: _320  and  _322
REMARK  134  A    between atoms: _322  and  _323
REMARK  135  A    between atoms: _322  and  _325
REMARK  136  A    between atoms: _325  and  _326
REMARK  137  A    between atoms: _329  and  _331
REMARK  138  A    between atoms: _331  and  _332
REMARK  139  A    between atoms: _331  and  _334
REMARK  140  A    between atoms: _334  and  _335
REMARK  141  A    between atoms: _338  and  _340
REMARK  142  A    between atoms: _340  and  _341
REMARK  143  A    between atoms: _344  and  _346
REMARK  144  A    between atoms: _346  and  _347
REMARK  145  A    between atoms: _346  and  _349
REMARK  146  A    between atoms: _352  and  _354
REMARK  147  A    between atoms: _354  and  _355
REMARK  148  A    between atoms: _354  and  _357
REMARK  149  A    between atoms: _357  and  _358
REMARK  150  A    between atoms: _360  and  _362
REMARK  151  A    between atoms: _362  and  _363
REMARK  152  A    between atoms: _362  and  _365
REMARK  153  A    between atoms: _365  and  _366
REMARK  154  A    between atoms: _369  and  _371
REMARK  155  A    between atoms: _371  and  _372
REMARK  156  A    between atoms: _374  and  _376
REMARK  157  A    between atoms: _376  and  _377
REMARK  158  A    between atoms: _376  and  _379
REMARK  159  A    between atoms: _379  and  _380
REMARK  160  A    between atoms: _383  and  _385
REMARK  161  A    between atoms: _385  and  _386
REMARK  162  A    between atoms: _385  and  _388
REMARK  163  A    between atoms: _388  and  _389
REMARK  164  A    between atoms: _389  and  _390
REMARK  165  A    between atoms: _395  and  _397
REMARK  166  A    between atoms: _397  and  _398
REMARK  167  A    between atoms: _397  and  _400
REMARK  168  A    between atoms: _400  and  _401
REMARK  169  A    between atoms: _404  and  _406
REMARK  170  A    between atoms: _406  and  _407
REMARK  171  A    between atoms: _406  and  _409
REMARK  172  A    between atoms: _409  and  _410
REMARK  173  A    between atoms: _410  and  _411
REMARK  174  A    between atoms: _411  and  _412
REMARK  175  A    between atoms: _421  and  _423
REMARK  176  A    between atoms: _423  and  _424
REMARK  177  A    between atoms: _423  and  _426
REMARK  178  A    between atoms: _426  and  _427
REMARK  179  A    between atoms: _429  and  _431
REMARK  180  A    between atoms: _431  and  _432
REMARK  181  A    between atoms: _431  and  _434
REMARK  182  A    between atoms: _434  and  _435
REMARK  183  A    between atoms: _438  and  _440
REMARK  184  A    between atoms: _440  and  _441
REMARK  185  A    between atoms: _440  and  _443
REMARK  186  A    between atoms: _443  and  _444
REMARK  187  A    between atoms: _450  and  _452
REMARK  188  A    between atoms: _452  and  _453
REMARK  189  A    between atoms: _452  and  _455
REMARK  190  A    between atoms: _455  and  _456
REMARK  191  A    between atoms: _462  and  _464
REMARK  192  A    between atoms: _464  and  _465
REMARK  193  A    between atoms: _464  and  _467
REMARK  194  A    between atoms: _467  and  _468
REMARK  195  A    between atoms: _471  and  _473
REMARK  196  A    between atoms: _473  and  _474
REMARK  197  A    between atoms: _473  and  _476
REMARK  198  A    between atoms: _476  and  _477
REMARK  199  A    between atoms: _482  and  _483
REMARK  200  A    between atoms: _485  and  _487
REMARK  201  A    between atoms: _487  and  _488
REMARK  202  A    between atoms: _487  and  _490
REMARK  203  A    between atoms: _490  and  _491
REMARK  204  A    between atoms: _494  and  _496
REMARK  205  A    between atoms: _496  and  _497
REMARK  206  A    between atoms: _496  and  _499
REMARK  207  A    between atoms: _499  and  _500
REMARK  208  A    between atoms: _500  and  _501
REMARK  209  A    between atoms: _501  and  _502
REMARK  210  A    between atoms: _511  and  _513
REMARK  211  A    between atoms: _513  and  _514
REMARK  212  A    between atoms: _513  and  _516
REMARK  213  A    between atoms: _516  and  _517
REMARK  214  A    between atoms: _520  and  _522
REMARK  215  A    between atoms: _522  and  _523
REMARK  216  A    between atoms: _522  and  _525
REMARK  217  A    between atoms: _525  and  _526
REMARK  218  A    between atoms: _529  and  _531
REMARK  219  A    between atoms: _531  and  _532
REMARK  220  A    between atoms: _531  and  _534
REMARK  221  A    between atoms: _534  and  _535
REMARK  222  A    between atoms: _535  and  _536
REMARK  223  A    between atoms: _536  and  _537
REMARK  224  A    between atoms: _537  and  _538
REMARK  225  A    between atoms: _542  and  _544
REMARK  226  A    between atoms: _544  and  _545
REMARK  227  A    between atoms: _547  and  _549
REMARK  228  A    between atoms: _549  and  _550
REMARK  229  A    between atoms: _549  and  _552
REMARK                            x       y       z     vdW  Elec       q    Type
REMARK                         _______ _______ _______ _____ _____    ______ ____
ROOT
ATOM      1  CB  GLN A   1      18.190  15.459  16.918  0.00  0.00    +0.035 C 
ENDROOT
BRANCH   1   2
ATOM      2  CA  GLN A   1      19.114  14.838  17.951  0.00  0.00    +0.134 C 
BRANCH   2   3
ATOM      3  N   GLN A   1      18.456  13.825  18.790  0.00  0.00    -0.239 NA
ATOM      4  H   GLN A   1      18.012  14.115  19.685  0.00  0.00    +0.142 HD
ENDBRANCH   2   3
BRANCH   2   5
ATOM      5  C   GLN A   1      19.818  15.883  18.819  0.00  0.00    +0.224 C 
ATOM      6  O   GLN A   1      19.423  16.148  19.931  0.00  0.00    -0.287 OA
ENDBRANCH   2   5
ENDBRANCH   1   2
BRANCH   1   7
ATOM      7  CG  GLN A   1      16.928  16.133  17.459  0.00  0.00    +0.087 C 
BRANCH   7   8
ATOM      8  CD  GLN A   1      16.584  17.410  16.722  0.00  0.00    +0.219 C 
ATOM      9  NE2 GLN A   1      15.762  18.194  17.320  0.00  0.00    -0.329 N 
ATOM     10 HE21 GLN A   1      15.343  17.913  18.229  0.00  0.00    +0.145 HD
ATOM     11 HE22 GLN A   1      15.515  19.110  16.895  0.00  0.00    +0.145 HD
ATOM     12  OE1 GLN A   1      17.089  17.701  15.668  0.00  0.00    -0.275 OA
ENDBRANCH   7   8
ENDBRANCH   1   7
TORSDOF 5
REMARK  Name = ../refined-set-2016/4oma/4oma_pocket.pdb
REMARK  229 active torsions:
REMARK  status: ('A' for Active; 'I' for Inactive)
REMARK    1  A    between atoms: _1  and  _3
REMARK    2  A    between atoms: _3  and  _4
REMARK    3  A    between atoms: _3  and  _6
REMARK    4  A    between atoms: _6  and  _7
REMARK    5  A    between atoms: _10  and  _12
REMARK    6  A    between atoms: _12  and  _13
REMARK    7  A    between atoms: _16  and  _18
REMARK    8  A    between atoms: _18  and  _19
REMARK    9  A    between atoms: _18  and  _21
REMARK   10  A    between atoms: _21  and  _22
REMARK   11  A    between atoms: _24  and  _26
REMARK   12  A    between atoms: _26  and  _27
REMARK   13  A    between atoms: _29  and  _31
REMARK   14  A    between atoms: _31  and  _32
REMARK   15  A    between atoms: _31  and  _34
REMARK   16  A    between atoms: _34  and  _35
REMARK   17  A    between atoms: _38  and  _40
REMARK   18  A    between atoms: _40  and  _41
REMARK   19  A    between atoms: _40  and  _43
REMARK   20  A    between atoms: _43  and  _44
REMARK   21  A    between atoms: _46  and  _48
REMARK   22  A    between atoms: _48  and  _49
REMARK   23  A    between atoms: _52  and  _54
REMARK   24  A    between atoms: _54  and  _55
REMARK   25  A    between atoms: _54  and  _57
REMARK   26  A    between atoms: _57  and  _58
REMARK   27  A    between atoms: _61  and  _63
REMARK   28  A    between atoms: _63  and  _64
REMARK   29  A    between atoms: _63  and  _66
REMARK   30  A    between atoms: _66  and  _67
REMARK   31  A    between atoms: _70  and  _72
REMARK   32  A    between atoms: _72  and  _73
REMARK   33  A    between atoms: _76  and  _78
REMARK   34  A    between atoms: _78  and  _79
REMARK   35  A    between atoms: _78  and  _81
REMARK   36  A    between atoms: _81  and  _82
REMARK   37  A    between atoms: _85  and  _87
REMARK   38  A    between atoms: _87  and  _88
REMARK   39  A    between atoms: _87  and  _90
REMARK   40  A    between atoms: _90  and  _91
REMARK   41  A    between atoms: _96  and  _97
REMARK   42  A    between atoms: _99  and  _101
REMARK   43  A    between atoms: _101  and  _102
REMARK   44  A    between atoms: _104  and  _106
REMARK   45  A    between atoms: _106  and  _107
REMARK   46  A    between atoms: _106  and  _109
REMARK   47  A    between atoms: _111  and  _113
REMARK   48  A    between atoms: _113  and  _114
REMARK   49  A    between atoms: _113  and  _116
REMARK   50  A    between atoms: _116  and  _117
REMARK   51  A    between atoms: _120  and  _122
REMARK   52  A    between atoms: _122  and  _123
REMARK   53  A    between atoms: _122  and  _125
REMARK   54  A    between atoms: _125  and  _126
REMARK   55  A    between atoms: _131  and  _132
REMARK   56  A    between atoms: _134  and  _136
REMARK   57  A    between atoms: _136  and  _137
REMARK   58  A    between atoms: _136  and  _139
REMARK   59  A    between atoms: _139  and  _140
REMARK   60  A    between atoms: _143  and  _145
REMARK   61  A    between atoms: _145  and  _146
REMARK   62  A    between atoms: _145  and  _148
REMARK   63  A    between atoms: _148  and  _149
REMARK   64  A    between atoms: _149  and  _150
REMARK   65  A    between atoms: _153  and  _155
REMARK   66  A    between atoms: _155  and  _156
REMARK   67  A    between atoms: _155  and  _158
REMARK   68  A    between atoms: _158  and  _159
REMARK   69  A    between atoms: _163  and  _164
REMARK   70  A    between atoms: _169  and  _171
REMARK   71  A    between atoms: _171  and  _172
REMARK   72  A    between atoms: _175  and  _177
REMARK   73  A    between atoms: _177  and  _178
REMARK   74  A    between atoms: _177  and  _180
REMARK   75  A    between atoms: _180  and  _181
REMARK   76  A    between atoms: _186  and  _188
REMARK   77  A    between atoms: _188  and  _189
REMARK   78  A    between atoms: _188  and  _191
REMARK   79  A    between atoms: _191  and  _192
REMARK   80  A    between atoms: _195  and  _197
REMARK   81  A    between atoms: _197  and  _198
REMARK   82  A    between atoms: _197  and  _200
REMARK   83  A    between atoms: _200  and  _201
REMARK   84  A    between atoms: _206  and  _208
REMARK   85  A    between atoms: _208  and  _209
REMARK   86  A    between atoms: _208  and  _211
REMARK   87  A    between atoms: _211  and  _212
REMARK   88  A    between atoms: _215  and  _217
REMARK   89  A    between atoms: _217  and  _218
REMARK   90  A    between atoms: _217  and  _220
REMARK   91  A    between atoms: _220  and  _221
REMARK   92  A    between atoms: _227  and  _229
REMARK   93  A    between atoms: _229  and  _230
REMARK   94  A    between atoms: _229  and  _232
REMARK   95  A    between atoms: _232  and  _233
REMARK   96  A    between atoms: _233  and  _234
REMARK   97  A    between atoms: _236  and  _238
REMARK   98  A    between atoms: _238  and  _239
REMARK   99  A    between atoms: _238  and  _241
REMARK  100  A    between atoms: _244  and  _246
REMARK  101  A    between atoms: _246  and  _247
REMARK  102  A    between atoms: _246  and  _249
REMARK  103  A    between atoms: _249  and  _250
REMARK  104  A    between atoms: _255  and  _257
REMARK  105  A    between atoms: _257  and  _258
REMARK  106  A    between atoms: _257  and  _260
REMARK  107  A    between atoms: _260  and  _261
REMARK  108  A    between atoms: _263  and  _265
REMARK  109  A    between atoms: _265  and  _266
REMARK  110  A    between atoms: _265  and  _268
REMARK  111  A    between atoms: _271  and  _273
REMARK  112  A    between atoms: _273  and  _274
REMARK  113  A    between atoms: _273  and  _276
REMARK  114  A    between atoms: _276  and  _277
REMARK  115  A    between atoms: _280  and  _282
REMARK  116  A    between atoms: _282  and  _283
REMARK  117  A    between atoms: _282  and  _285
REMARK  118  A    between atoms: _285  and  _286
REMARK  119  A    between atoms: _286  and  _287
REMARK  120  A    between atoms: _287  and  _288
REMARK  121  A    between atoms: _288  and  _289
REMARK  122  A    between atoms: _293  and  _295
REMARK  123  A    between atoms: _295  and  _296
REMARK  124  A    between atoms: _295  and  _298
REMARK  125  A    between atoms: _301  and  _303
REMARK  126  A    between atoms: _303  and  _304
REMARK  127  A    between atoms: _303  and  _306
REMARK  128  A    between atoms: _306  and  _307
REMARK  129  A    between atoms: _310  and  _312
REMARK  130  A    between atoms: _312  and  _313
REMARK  131  A    between atoms: _315  and  _317
REMARK  132  A    between atoms: _317  and  _318
REMARK  133  A    between atoms: _320  and  _322
REMARK  134  A    between atoms: _322  and  _323
REMARK  135  A    between atoms: _322  and  _325
REMARK  136  A    between atoms: _325  and  _326
REMARK  137  A    between atoms: _329  and  _331
REMARK  138  A    between atoms: _331  and  _332
REMARK  139  A    between atoms: _331  and  _334
REMARK  140  A    between atoms: _334  and  _335
REMARK  141  A    between atoms: _338  and  _340
REMARK  142  A    between atoms: _340  and  _341
REMARK  143  A    between atoms: _344  and  _346
REMARK  144  A    between atoms: _346  and  _347
REMARK  145  A    between atoms: _346  and  _349
REMARK  146  A    between atoms: _352  and  _354
REMARK  147  A    between atoms: _354  and  _355
REMARK  148  A    between atoms: _354  and  _357
REMARK  149  A    between atoms: _357  and  _358
REMARK  150  A    between atoms: _360  and  _362
REMARK  151  A    between atoms: _362  and  _363
REMARK  152  A    between atoms: _362  and  _365
REMARK  153  A    between atoms: _365  and  _366
REMARK  154  A    between atoms: _369  and  _371
REMARK  155  A    between atoms: _371  and  _372
REMARK  156  A    between atoms: _374  and  _376
REMARK  157  A    between atoms: _376  and  _377
REMARK  158  A    between atoms: _376  and  _379
REMARK  159  A    between atoms: _379  and  _380
REMARK  160  A    between atoms: _383  and  _385
REMARK  161  A    between atoms: _385  and  _386
REMARK  162  A    between atoms: _385  and  _388
REMARK  163  A    between atoms: _388  and  _389
REMARK  164  A    between atoms: _389  and  _390
REMARK  165  A    between atoms: _395  and  _397
REMARK  166  A    between atoms: _397  and  _398
REMARK  167  A    between atoms: _397  and  _400
REMARK  168  A    between atoms: _400  and  _401
REMARK  169  A    between atoms: _404  and  _406
REMARK  170  A    between atoms: _406  and  _407
REMARK  171  A    between atoms: _406  and  _409
REMARK  172  A    between atoms: _409  and  _410
REMARK  173  A    between atoms: _410  and  _411
REMARK  174  A    between atoms: _411  and  _412
REMARK  175  A    between atoms: _421  and  _423
REMARK  176  A    between atoms: _423  and  _424
REMARK  177  A    between atoms: _423  and  _426
REMARK  178  A    between atoms: _426  and  _427
REMARK  179  A    between atoms: _429  and  _431
REMARK  180  A    between atoms: _431  and  _432
REMARK  181  A    between atoms: _431  and  _434
REMARK  182  A    between atoms: _434  and  _435
REMARK  183  A    between atoms: _438  and  _440
REMARK  184  A    between atoms: _440  and  _441
REMARK  185  A    between atoms: _440  and  _443
REMARK  186  A    between atoms: _443  and  _444
REMARK  187  A    between atoms: _450  and  _452
REMARK  188  A    between atoms: _452  and  _453
REMARK  189  A    between atoms: _452  and  _455
REMARK  190  A    between atoms: _455  and  _456
REMARK  191  A    between atoms: _462  and  _464
REMARK  192  A    between atoms: _464  and  _465
REMARK  193  A    between atoms: _464  and  _467
REMARK  194  A    between atoms: _467  and  _468
REMARK  195  A    between atoms: _471  and  _473
REMARK  196  A    between atoms: _473  and  _474
REMARK  197  A    between atoms: _473  and  _476
REMARK  198  A    between atoms: _476  and  _477
REMARK  199  A    between atoms: _482  and  _483
REMARK  200  A    between atoms: _485  and  _487
REMARK  201  A    between atoms: _487  and  _488
REMARK  202  A    between atoms: _487  and  _490
REMARK  203  A    between atoms: _490  and  _491
REMARK  204  A    between atoms: _494  and  _496
REMARK  205  A    between atoms: _496  and  _497
REMARK  206  A    between atoms: _496  and  _499
REMARK  207  A    between atoms: _499  and  _500
REMARK  208  A    between atoms: _500  and  _501
REMARK  209  A    between atoms: _501  and  _502
REMARK  210  A    between atoms: _511  and  _513
REMARK  211  A    between atoms: _513  and  _514
REMARK  212  A    between atoms: _513  and  _516
REMARK  213  A    between atoms: _516  and  _517
REMARK  214  A    between atoms: _520  and  _522
REMARK  215  A    between atoms: _522  and  _523
REMARK  216  A    between atoms: _522  and  _525
REMARK  217  A    between atoms: _525  and  _526
REMARK  218  A    between atoms: _529  and  _531
REMARK  219  A    between atoms: _531  and  _532
REMARK  220  A    between atoms: _531  and  _534
REMARK  221  A    between atoms: _534  and  _535
REMARK  222  A    between atoms: _535  and  _536
REMARK  223  A    between atoms: _536  and  _537
REMARK  224  A    between atoms: _537  and  _538
REMARK  225  A    between atoms: _542  and  _544
REMARK  226  A    between atoms: _544  and  _545
REMARK  227  A    between atoms: _547  and  _549
REMARK  228  A    between atoms: _549  and  _550
REMARK  229  A    between atoms: _549  and  _552
REMARK                            x       y       z     vdW  Elec       q    Type
REMARK                         _______ _______ _______ _____ _____    ______ ____
ROOT
ATOM      1  CA  THR A   1      20.627  20.762  12.658  0.00  0.00    +0.160 C 
ENDROOT
BRANCH   1   2
ATOM      2  N   THR A   1      21.564  19.910  13.364  0.00  0.00    -0.237 NA
ATOM      3  H   THR A   1      21.297  19.539  14.298  0.00  0.00    +0.142 HD
ENDBRANCH   1   2
BRANCH   1   4
ATOM      4  CB  THR A   1      19.224  20.579  13.286  0.00  0.00    +0.134 C 
ATOM      5  CG2 THR A   1      18.094  21.317  12.508  0.00  0.00    +0.034 C 
BRANCH   4   6
ATOM      6  OG1 THR A   1      18.956  19.159  13.296  0.00  0.00    -0.383 OA
ATOM      7  HG1 THR A   1      18.063  18.996  13.692  0.00  0.00    +0.210 HD
ENDBRANCH   4   6
ENDBRANCH   1   4
BRANCH   1   8
ATOM      8  C   THR A   1      21.110  22.196  12.582  0.00  0.00    +0.227 C 
ATOM      9  O   THR A   1      20.661  22.900  11.675  0.00  0.00    -0.287 OA
ENDBRANCH   1   8
TORSDOF 4
REMARK  Name = ../refined-set-2016/4oma/4oma_pocket.pdb
REMARK  229 active torsions:
REMARK  status: ('A' for Active; 'I' for Inactive)
REMARK    1  A    between atoms: _1  and  _3
REMARK    2  A    between atoms: _3  and  _4
REMARK    3  A    between atoms: _3  and  _6
REMARK    4  A    between atoms: _6  and  _7
REMARK    5  A    between atoms: _10  and  _12
REMARK    6  A    between atoms: _12  and  _13
REMARK    7  A    between atoms: _16  and  _18
REMARK    8  A    between atoms: _18  and  _19
REMARK    9  A    between atoms: _18  and  _21
REMARK   10  A    between atoms: _21  and  _22
REMARK   11  A    between atoms: _24  and  _26
REMARK   12  A    between atoms: _26  and  _27
REMARK   13  A    between atoms: _29  and  _31
REMARK   14  A    between atoms: _31  and  _32
REMARK   15  A    between atoms: _31  and  _34
REMARK   16  A    between atoms: _34  and  _35
REMARK   17  A    between atoms: _38  and  _40
REMARK   18  A    between atoms: _40  and  _41
REMARK   19  A    between atoms: _40  and  _43
REMARK   20  A    between atoms: _43  and  _44
REMARK   21  A    between atoms: _46  and  _48
REMARK   22  A    between atoms: _48  and  _49
REMARK   23  A    between atoms: _52  and  _54
REMARK   24  A    between atoms: _54  and  _55
REMARK   25  A    between atoms: _54  and  _57
REMARK   26  A    between atoms: _57  and  _58
REMARK   27  A    between atoms: _61  and  _63
REMARK   28  A    between atoms: _63  and  _64
REMARK   29  A    between atoms: _63  and  _66
REMARK   30  A    between atoms: _66  and  _67
REMARK   31  A    between atoms: _70  and  _72
REMARK   32  A    between atoms: _72  and  _73
REMARK   33  A    between atoms: _76  and  _78
REMARK   34  A    between atoms: _78  and  _79
REMARK   35  A    between atoms: _78  and  _81
REMARK   36  A    between atoms: _81  and  _82
REMARK   37  A    between atoms: _85  and  _87
REMARK   38  A    between atoms: _87  and  _88
REMARK   39  A    between atoms: _87  and  _90
REMARK   40  A    between atoms: _90  and  _91
REMARK   41  A    between atoms: _96  and  _97
REMARK   42  A    between atoms: _99  and  _101
REMARK   43  A    between atoms: _101  and  _102
REMARK   44  A    between atoms: _104  and  _106
REMARK   45  A    between atoms: _106  and  _107
REMARK   46  A    between atoms: _106  and  _109
REMARK   47  A    between atoms: _111  and  _113
REMARK   48  A    between atoms: _113  and  _114
REMARK   49  A    between atoms: _113  and  _116
REMARK   50  A    between atoms: _116  and  _117
REMARK   51  A    between atoms: _120  and  _122
REMARK   52  A    between atoms: _122  and  _123
REMARK   53  A    between atoms: _122  and  _125
REMARK   54  A    between atoms: _125  and  _126
REMARK   55  A    between atoms: _131  and  _132
REMARK   56  A    between atoms: _134  and  _136
REMARK   57  A    between atoms: _136  and  _137
REMARK   58  A    between atoms: _136  and  _139
REMARK   59  A    between atoms: _139  and  _140
REMARK   60  A    between atoms: _143  and  _145
REMARK   61  A    between atoms: _145  and  _146
REMARK   62  A    between atoms: _145  and  _148
REMARK   63  A    between atoms: _148  and  _149
REMARK   64  A    between atoms: _149  and  _150
REMARK   65  A    between atoms: _153  and  _155
REMARK   66  A    between atoms: _155  and  _156
REMARK   67  A    between atoms: _155  and  _158
REMARK   68  A    between atoms: _158  and  _159
REMARK   69  A    between atoms: _163  and  _164
REMARK   70  A    between atoms: _169  and  _171
REMARK   71  A    between atoms: _171  and  _172
REMARK   72  A    between atoms: _175  and  _177
REMARK   73  A    between atoms: _177  and  _178
REMARK   74  A    between atoms: _177  and  _180
REMARK   75  A    between atoms: _180  and  _181
REMARK   76  A    between atoms: _186  and  _188
REMARK   77  A    between atoms: _188  and  _189
REMARK   78  A    between atoms: _188  and  _191
REMARK   79  A    between atoms: _191  and  _192
REMARK   80  A    between atoms: _195  and  _197
REMARK   81  A    between atoms: _197  and  _198
REMARK   82  A    between atoms: _197  and  _200
REMARK   83  A    between atoms: _200  and  _201
REMARK   84  A    between atoms: _206  and  _208
REMARK   85  A    between atoms: _208  and  _209
REMARK   86  A    between atoms: _208  and  _211
REMARK   87  A    between atoms: _211  and  _212
REMARK   88  A    between atoms: _215  and  _217
REMARK   89  A    between atoms: _217  and  _218
REMARK   90  A    between atoms: _217  and  _220
REMARK   91  A    between atoms: _220  and  _221
REMARK   92  A    between atoms: _227  and  _229
REMARK   93  A    between atoms: _229  and  _230
REMARK   94  A    between atoms: _229  and  _232
REMARK   95  A    between atoms: _232  and  _233
REMARK   96  A    between atoms: _233  and  _234
REMARK   97  A    between atoms: _236  and  _238
REMARK   98  A    between atoms: _238  and  _239
REMARK   99  A    between atoms: _238  and  _241
REMARK  100  A    between atoms: _244  and  _246
REMARK  101  A    between atoms: _246  and  _247
REMARK  102  A    between atoms: _246  and  _249
REMARK  103  A    between atoms: _249  and  _250
REMARK  104  A    between atoms: _255  and  _257
REMARK  105  A    between atoms: _257  and  _258
REMARK  106  A    between atoms: _257  and  _260
REMARK  107  A    between atoms: _260  and  _261
REMARK  108  A    between atoms: _263  and  _265
REMARK  109  A    between atoms: _265  and  _266
REMARK  110  A    between atoms: _265  and  _268
REMARK  111  A    between atoms: _271  and  _273
REMARK  112  A    between atoms: _273  and  _274
REMARK  113  A    between atoms: _273  and  _276
REMARK  114  A    between atoms: _276  and  _277
REMARK  115  A    between atoms: _280  and  _282
REMARK  116  A    between atoms: _282  and  _283
REMARK  117  A    between atoms: _282  and  _285
REMARK  118  A    between atoms: _285  and  _286
REMARK  119  A    between atoms: _286  and  _287
REMARK  120  A    between atoms: _287  and  _288
REMARK  121  A    between atoms: _288  and  _289
REMARK  122  A    between atoms: _293  and  _295
REMARK  123  A    between atoms: _295  and  _296
REMARK  124  A    between atoms: _295  and  _298
REMARK  125  A    between atoms: _301  and  _303
REMARK  126  A    between atoms: _303  and  _304
REMARK  127  A    between atoms: _303  and  _306
REMARK  128  A    between atoms: _306  and  _307
REMARK  129  A    between atoms: _310  and  _312
REMARK  130  A    between atoms: _312  and  _313
REMARK  131  A    between atoms: _315  and  _317
REMARK  132  A    between atoms: _317  and  _318
REMARK  133  A    between atoms: _320  and  _322
REMARK  134  A    between atoms: _322  and  _323
REMARK  135  A    between atoms: _322  and  _325
REMARK  136  A    between atoms: _325  and  _326
REMARK  137  A    between atoms: _329  and  _331
REMARK  138  A    between atoms: _331  and  _332
REMARK  139  A    between atoms: _331  and  _334
REMARK  140  A    between atoms: _334  and  _335
REMARK  141  A    between atoms: _338  and  _340
REMARK  142  A    between atoms: _340  and  _341
REMARK  143  A    between atoms: _344  and  _346
REMARK  144  A    between atoms: _346  and  _347
REMARK  145  A    between atoms: _346  and  _349
REMARK  146  A    between atoms: _352  and  _354
REMARK  147  A    between atoms: _354  and  _355
REMARK  148  A    between atoms: _354  and  _357
REMARK  149  A    between atoms: _357  and  _358
REMARK  150  A    between atoms: _360  and  _362
REMARK  151  A    between atoms: _362  and  _363
REMARK  152  A    between atoms: _362  and  _365
REMARK  153  A    between atoms: _365  and  _366
REMARK  154  A    between atoms: _369  and  _371
REMARK  155  A    between atoms: _371  and  _372
REMARK  156  A    between atoms: _374  and  _376
REMARK  157  A    between atoms: _376  and  _377
REMARK  158  A    between atoms: _376  and  _379
REMARK  159  A    between atoms: _379  and  _380
REMARK  160  A    between atoms: _383  and  _385
REMARK  161  A    between atoms: _385  and  _386
REMARK  162  A    between atoms: _385  and  _388
REMARK  163  A    between atoms: _388  and  _389
REMARK  164  A    between atoms: _389  and  _390
REMARK  165  A    between atoms: _395  and  _397
REMARK  166  A    between atoms: _397  and  _398
REMARK  167  A    between atoms: _397  and  _400
REMARK  168  A    between atoms: _400  and  _401
REMARK  169  A    between atoms: _404  and  _406
REMARK  170  A    between atoms: _406  and  _407
REMARK  171  A    between atoms: _406  and  _409
REMARK  172  A    between atoms: _409  and  _410
REMARK  173  A    between atoms: _410  and  _411
REMARK  174  A    between atoms: _411  and  _412
REMARK  175  A    between atoms: _421  and  _423
REMARK  176  A    between atoms: _423  and  _424
REMARK  177  A    between atoms: _423  and  _426
REMARK  178  A    between atoms: _426  and  _427
REMARK  179  A    between atoms: _429  and  _431
REMARK  180  A    between atoms: _431  and  _432
REMARK  181  A    between atoms: _431  and  _434
REMARK  182  A    between atoms: _434  and  _435
REMARK  183  A    between atoms: _438  and  _440
REMARK  184  A    between atoms: _440  and  _441
REMARK  185  A    between atoms: _440  and  _443
REMARK  186  A    between atoms: _443  and  _444
REMARK  187  A    between atoms: _450  and  _452
REMARK  188  A    between atoms: _452  and  _453
REMARK  189  A    between atoms: _452  and  _455
REMARK  190  A    between atoms: _455  and  _456
REMARK  191  A    between atoms: _462  and  _464
REMARK  192  A    between atoms: _464  and  _465
REMARK  193  A    between atoms: _464  and  _467
REMARK  194  A    between atoms: _467  and  _468
REMARK  195  A    between atoms: _471  and  _473
REMARK  196  A    between atoms: _473  and  _474
REMARK  197  A    between atoms: _473  and  _476
REMARK  198  A    between atoms: _476  and  _477
REMARK  199  A    between atoms: _482  and  _483
REMARK  200  A    between atoms: _485  and  _487
REMARK  201  A    between atoms: _487  and  _488
REMARK  202  A    between atoms: _487  and  _490
REMARK  203  A    between atoms: _490  and  _491
REMARK  204  A    between atoms: _494  and  _496
REMARK  205  A    between atoms: _496  and  _497
REMARK  206  A    between atoms: _496  and  _499
REMARK  207  A    between atoms: _499  and  _500
REMARK  208  A    between atoms: _500  and  _501
REMARK  209  A    between atoms: _501  and  _502
REMARK  210  A    between atoms: _511  and  _513
REMARK  211  A    between atoms: _513  and  _514
REMARK  212  A    between atoms: _513  and  _516
REMARK  213  A    between atoms: _516  and  _517
REMARK  214  A    between atoms: _520  and  _522
REMARK  215  A    between atoms: _522  and  _523
REMARK  216  A    between atoms: _522  and  _525
REMARK  217  A    between atoms: _525  and  _526
REMARK  218  A    between atoms: _529  and  _531
REMARK  219  A    between atoms: _531  and  _532
REMARK  220  A    between atoms: _531  and  _534
REMARK  221  A    between atoms: _534  and  _535
REMARK  222  A    between atoms: _535  and  _536
REMARK  223  A    between atoms: _536  and  _537
REMARK  224  A    between atoms: _537  and  _538
REMARK  225  A    between atoms: _542  and  _544
REMARK  226  A    between atoms: _544  and  _545
REMARK  227  A    between atoms: _547  and  _549
REMARK  228  A    between atoms: _549  and  _550
REMARK  229  A    between atoms: _549  and  _552
REMARK                            x       y       z     vdW  Elec       q    Type
REMARK                         _______ _______ _______ _____ _____    ______ ____
ROOT
ATOM      1  NE  ARG A   1      13.141  16.673  19.266  0.00  0.00    -0.265 N 
ATOM      2  HE  ARG A   1      13.614  15.750  19.343  0.00  0.00    +0.259 HD
ATOM      3  CZ  ARG A   1      12.527  16.966  18.107  0.00  0.00    +0.342 C 
ATOM      4  NH2 ARG A   1      11.882  18.132  17.961  0.00  0.00    -0.292 N 
ATOM      5 HH21 ARG A   1      11.856  18.813  18.746  0.00  0.00    +0.255 HD
ATOM      6 HH22 ARG A   1      11.408  18.355  17.063  0.00  0.00    +0.255 HD
ATOM      7  NH1 ARG A   1      12.544  16.100  17.080  0.00  0.00    -0.292 N 
ATOM      8 HH11 ARG A   1      13.037  15.189  17.176  0.00  0.00    +0.255 HD
ATOM      9 HH12 ARG A   1      12.064  16.340  16.189  0.00  0.00    +0.255 HD
ENDROOT
BRANCH   1  10
ATOM     10  CD  ARG A   1      13.191  17.569  20.435  0.00  0.00    +0.174 C 
BRANCH  10  11
ATOM     11  CG  ARG A   1      14.082  17.078  21.585  0.00  0.00    +0.045 C 
BRANCH  11  12
ATOM     12  CB  ARG A   1      15.627  17.174  21.281  0.00  0.00    +0.029 C 
BRANCH  12  13
ATOM     13  CA  ARG A   1      16.451  16.397  22.299  0.00  0.00    +0.133 C 
BRANCH  13  14
ATOM     14  N   ARG A   1      17.869  16.735  22.224  0.00  0.00    -0.239 NA
ATOM     15  H   ARG A   1      18.372  16.667  21.316  0.00  0.00    +0.142 HD
ENDBRANCH  13  14
BRANCH  13  16
ATOM     16  C   ARG A   1      16.250  14.887  22.094  0.00  0.00    +0.224 C 
ATOM     17  O   ARG A   1      16.723  14.308  21.113  0.00  0.00    -0.287 OA
ENDBRANCH  13  16
ENDBRANCH  12  13
ENDBRANCH  11  12
ENDBRANCH  10  11
ENDBRANCH   1  10
TORSDOF 6
REMARK  Name = ../refined-set-2016/4oma/4oma_pocket.pdb
REMARK  229 active torsions:
REMARK  status: ('A' for Active; 'I' for Inactive)
REMARK    1  A    between atoms: _1  and  _3
REMARK    2  A    between atoms: _3  and  _4
REMARK    3  A    between atoms: _3  and  _6
REMARK    4  A    between atoms: _6  and  _7
REMARK    5  A    between atoms: _10  and  _12
REMARK    6  A    between atoms: _12  and  _13
REMARK    7  A    between atoms: _16  and  _18
REMARK    8  A    between atoms: _18  and  _19
REMARK    9  A    between atoms: _18  and  _21
REMARK   10  A    between atoms: _21  and  _22
REMARK   11  A    between atoms: _24  and  _26
REMARK   12  A    between atoms: _26  and  _27
REMARK   13  A    between atoms: _29  and  _31
REMARK   14  A    between atoms: _31  and  _32
REMARK   15  A    between atoms: _31  and  _34
REMARK   16  A    between atoms: _34  and  _35
REMARK   17  A    between atoms: _38  and  _40
REMARK   18  A    between atoms: _40  and  _41
REMARK   19  A    between atoms: _40  and  _43
REMARK   20  A    between atoms: _43  and  _44
REMARK   21  A    between atoms: _46  and  _48
REMARK   22  A    between atoms: _48  and  _49
REMARK   23  A    between atoms: _52  and  _54
REMARK   24  A    between atoms: _54  and  _55
REMARK   25  A    between atoms: _54  and  _57
REMARK   26  A    between atoms: _57  and  _58
REMARK   27  A    between atoms: _61  and  _63
REMARK   28  A    between atoms: _63  and  _64
REMARK   29  A    between atoms: _63  and  _66
REMARK   30  A    between atoms: _66  and  _67
REMARK   31  A    between atoms: _70  and  _72
REMARK   32  A    between atoms: _72  and  _73
REMARK   33  A    between atoms: _76  and  _78
REMARK   34  A    between atoms: _78  and  _79
REMARK   35  A    between atoms: _78  and  _81
REMARK   36  A    between atoms: _81  and  _82
REMARK   37  A    between atoms: _85  and  _87
REMARK   38  A    between atoms: _87  and  _88
REMARK   39  A    between atoms: _87  and  _90
REMARK   40  A    between atoms: _90  and  _91
REMARK   41  A    between atoms: _96  and  _97
REMARK   42  A    between atoms: _99  and  _101
REMARK   43  A    between atoms: _101  and  _102
REMARK   44  A    between atoms: _104  and  _106
REMARK   45  A    between atoms: _106  and  _107
REMARK   46  A    between atoms: _106  and  _109
REMARK   47  A    between atoms: _111  and  _113
REMARK   48  A    between atoms: _113  and  _114
REMARK   49  A    between atoms: _113  and  _116
REMARK   50  A    between atoms: _116  and  _117
REMARK   51  A    between atoms: _120  and  _122
REMARK   52  A    between atoms: _122  and  _123
REMARK   53  A    between atoms: _122  and  _125
REMARK   54  A    between atoms: _125  and  _126
REMARK   55  A    between atoms: _131  and  _132
REMARK   56  A    between atoms: _134  and  _136
REMARK   57  A    between atoms: _136  and  _137
REMARK   58  A    between atoms: _136  and  _139
REMARK   59  A    between atoms: _139  and  _140
REMARK   60  A    between atoms: _143  and  _145
REMARK   61  A    between atoms: _145  and  _146
REMARK   62  A    between atoms: _145  and  _148
REMARK   63  A    between atoms: _148  and  _149
REMARK   64  A    between atoms: _149  and  _150
REMARK   65  A    between atoms: _153  and  _155
REMARK   66  A    between atoms: _155  and  _156
REMARK   67  A    between atoms: _155  and  _158
REMARK   68  A    between atoms: _158  and  _159
REMARK   69  A    between atoms: _163  and  _164
REMARK   70  A    between atoms: _169  and  _171
REMARK   71  A    between atoms: _171  and  _172
REMARK   72  A    between atoms: _175  and  _177
REMARK   73  A    between atoms: _177  and  _178
REMARK   74  A    between atoms: _177  and  _180
REMARK   75  A    between atoms: _180  and  _181
REMARK   76  A    between atoms: _186  and  _188
REMARK   77  A    between atoms: _188  and  _189
REMARK   78  A    between atoms: _188  and  _191
REMARK   79  A    between atoms: _191  and  _192
REMARK   80  A    between atoms: _195  and  _197
REMARK   81  A    between atoms: _197  and  _198
REMARK   82  A    between atoms: _197  and  _200
REMARK   83  A    between atoms: _200  and  _201
REMARK   84  A    between atoms: _206  and  _208
REMARK   85  A    between atoms: _208  and  _209
REMARK   86  A    between atoms: _208  and  _211
REMARK   87  A    between atoms: _211  and  _212
REMARK   88  A    between atoms: _215  and  _217
REMARK   89  A    between atoms: _217  and  _218
REMARK   90  A    between atoms: _217  and  _220
REMARK   91  A    between atoms: _220  and  _221
REMARK   92  A    between atoms: _227  and  _229
REMARK   93  A    between atoms: _229  and  _230
REMARK   94  A    between atoms: _229  and  _232
REMARK   95  A    between atoms: _232  and  _233
REMARK   96  A    between atoms: _233  and  _234
REMARK   97  A    between atoms: _236  and  _238
REMARK   98  A    between atoms: _238  and  _239
REMARK   99  A    between atoms: _238  and  _241
REMARK  100  A    between atoms: _244  and  _246
REMARK  101  A    between atoms: _246  and  _247
REMARK  102  A    between atoms: _246  and  _249
REMARK  103  A    between atoms: _249  and  _250
REMARK  104  A    between atoms: _255  and  _257
REMARK  105  A    between atoms: _257  and  _258
REMARK  106  A    between atoms: _257  and  _260
REMARK  107  A    between atoms: _260  and  _261
REMARK  108  A    between atoms: _263  and  _265
REMARK  109  A    between atoms: _265  and  _266
REMARK  110  A    between atoms: _265  and  _268
REMARK  111  A    between atoms: _271  and  _273
REMARK  112  A    between atoms: _273  and  _274
REMARK  113  A    between atoms: _273  and  _276
REMARK  114  A    between atoms: _276  and  _277
REMARK  115  A    between atoms: _280  and  _282
REMARK  116  A    between atoms: _282  and  _283
REMARK  117  A    between atoms: _282  and  _285
REMARK  118  A    between atoms: _285  and  _286
REMARK  119  A    between atoms: _286  and  _287
REMARK  120  A    between atoms: _287  and  _288
REMARK  121  A    between atoms: _288  and  _289
REMARK  122  A    between atoms: _293  and  _295
REMARK  123  A    between atoms: _295  and  _296
REMARK  124  A    between atoms: _295  and  _298
REMARK  125  A    between atoms: _301  and  _303
REMARK  126  A    between atoms: _303  and  _304
REMARK  127  A    between atoms: _303  and  _306
REMARK  128  A    between atoms: _306  and  _307
REMARK  129  A    between atoms: _310  and  _312
REMARK  130  A    between atoms: _312  and  _313
REMARK  131  A    between atoms: _315  and  _317
REMARK  132  A    between atoms: _317  and  _318
REMARK  133  A    between atoms: _320  and  _322
REMARK  134  A    between atoms: _322  and  _323
REMARK  135  A    between atoms: _322  and  _325
REMARK  136  A    between atoms: _325  and  _326
REMARK  137  A    between atoms: _329  and  _331
REMARK  138  A    between atoms: _331  and  _332
REMARK  139  A    between atoms: _331  and  _334
REMARK  140  A    between atoms: _334  and  _335
REMARK  141  A    between atoms: _338  and  _340
REMARK  142  A    between atoms: _340  and  _341
REMARK  143  A    between atoms: _344  and  _346
REMARK  144  A    between atoms: _346  and  _347
REMARK  145  A    between atoms: _346  and  _349
REMARK  146  A    between atoms: _352  and  _354
REMARK  147  A    between atoms: _354  and  _355
REMARK  148  A    between atoms: _354  and  _357
REMARK  149  A    between atoms: _357  and  _358
REMARK  150  A    between atoms: _360  and  _362
REMARK  151  A    between atoms: _362  and  _363
REMARK  152  A    between atoms: _362  and  _365
REMARK  153  A    between atoms: _365  and  _366
REMARK  154  A    between atoms: _369  and  _371
REMARK  155  A    between atoms: _371  and  _372
REMARK  156  A    between atoms: _374  and  _376
REMARK  157  A    between atoms: _376  and  _377
REMARK  158  A    between atoms: _376  and  _379
REMARK  159  A    between atoms: _379  and  _380
REMARK  160  A    between atoms: _383  and  _385
REMARK  161  A    between atoms: _385  and  _386
REMARK  162  A    between atoms: _385  and  _388
REMARK  163  A    between atoms: _388  and  _389
REMARK  164  A    between atoms: _389  and  _390
REMARK  165  A    between atoms: _395  and  _397
REMARK  166  A    between atoms: _397  and  _398
REMARK  167  A    between atoms: _397  and  _400
REMARK  168  A    between atoms: _400  and  _401
REMARK  169  A    between atoms: _404  and  _406
REMARK  170  A    between atoms: _406  and  _407
REMARK  171  A    between atoms: _406  and  _409
REMARK  172  A    between atoms: _409  and  _410
REMARK  173  A    between atoms: _410  and  _411
REMARK  174  A    between atoms: _411  and  _412
REMARK  175  A    between atoms: _421  and  _423
REMARK  176  A    between atoms: _423  and  _424
REMARK  177  A    between atoms: _423  and  _426
REMARK  178  A    between atoms: _426  and  _427
REMARK  179  A    between atoms: _429  and  _431
REMARK  180  A    between atoms: _431  and  _432
REMARK  181  A    between atoms: _431  and  _434
REMARK  182  A    between atoms: _434  and  _435
REMARK  183  A    between atoms: _438  and  _440
REMARK  184  A    between atoms: _440  and  _441
REMARK  185  A    between atoms: _440  and  _443
REMARK  186  A    between atoms: _443  and  _444
REMARK  187  A    between atoms: _450  and  _452
REMARK  188  A    between atoms: _452  and  _453
REMARK  189  A    between atoms: _452  and  _455
REMARK  190  A    between atoms: _455  and  _456
REMARK  191  A    between atoms: _462  and  _464
REMARK  192  A    between atoms: _464  and  _465
REMARK  193  A    between atoms: _464  and  _467
REMARK  194  A    between atoms: _467  and  _468
REMARK  195  A    between atoms: _471  and  _473
REMARK  196  A    between atoms: _473  and  _474
REMARK  197  A    between atoms: _473  and  _476
REMARK  198  A    between atoms: _476  and  _477
REMARK  199  A    between atoms: _482  and  _483
REMARK  200  A    between atoms: _485  and  _487
REMARK  201  A    between atoms: _487  and  _488
REMARK  202  A    between atoms: _487  and  _490
REMARK  203  A    between atoms: _490  and  _491
REMARK  204  A    between atoms: _494  and  _496
REMARK  205  A    between atoms: _496  and  _497
REMARK  206  A    between atoms: _496  and  _499
REMARK  207  A    between atoms: _499  and  _500
REMARK  208  A    between atoms: _500  and  _501
REMARK  209  A    between atoms: _501  and  _502
REMARK  210  A    between atoms: _511  and  _513
REMARK  211  A    between atoms: _513  and  _514
REMARK  212  A    between atoms: _513  and  _516
REMARK  213  A    between atoms: _516  and  _517
REMARK  214  A    between atoms: _520  and  _522
REMARK  215  A    between atoms: _522  and  _523
REMARK  216  A    between atoms: _522  and  _525
REMARK  217  A    between atoms: _525  and  _526
REMARK  218  A    between atoms: _529  and  _531
REMARK  219  A    between atoms: _531  and  _532
REMARK  220  A    between atoms: _531  and  _534
REMARK  221  A    between atoms: _534  and  _535
REMARK  222  A    between atoms: _535  and  _536
REMARK  223  A    between atoms: _536  and  _537
REMARK  224  A    between atoms: _537  and  _538
REMARK  225  A    between atoms: _542  and  _544
REMARK  226  A    between atoms: _544  and  _545
REMARK  227  A    between atoms: _547  and  _549
REMARK  228  A    between atoms: _549  and  _550
REMARK  229  A    between atoms: _549  and  _552
REMARK                            x       y       z     vdW  Elec       q    Type
REMARK                         _______ _______ _______ _____ _____    ______ ____
ROOT
ATOM      1  CA  THR A   2      12.573  10.173   8.768  0.00  0.00    +0.176 C 
ENDROOT
BRANCH   1   3
ATOM      2  C   SER A   1      10.381  10.394   7.831  0.00  0.00    +0.241 C 
ATOM      3  N   THR A   2      11.200   9.647   8.509  0.00  0.00    -0.295 N 
ATOM      4  H   THR A   2      10.908   8.712   8.860  0.00  0.00    +0.150 HD
ATOM      5  O   SER A   1      10.705  11.398   7.293  0.00  0.00    -0.274 OA
BRANCH   2   6
ATOM      6  CA  SER A   1       8.901   9.883   7.787  0.00  0.00    +0.174 C 
BRANCH   6   7
ATOM      7  N   SER A   1       8.851   8.426   7.521  0.00  0.00    -0.236 NA
ATOM      8  H   SER A   1       8.834   7.752   8.313  0.00  0.00    +0.142 HD
ENDBRANCH   6   7
BRANCH   6   9
ATOM      9  CB  SER A   1       8.188  10.246   9.051  0.00  0.00    +0.163 C 
BRANCH   9  10
ATOM     10  OG  SER A   1       8.651   9.537  10.117  0.00  0.00    -0.380 OA
ATOM     11  H   SER A   1       8.155   9.806  10.931  0.00  0.00    +0.211 HD
ENDBRANCH   9  10
ENDBRANCH   6   9
ENDBRANCH   2   6
ENDBRANCH   1   3
BRANCH   1  12
ATOM     12  C   THR A   2      13.609   9.202   8.381  0.00  0.00    +0.243 C 
ATOM     13  N   PHE A   3      14.867   9.719   8.516  0.00  0.00    -0.298 N 
ATOM     14  H   PHE A   3      14.980  10.643   8.980  0.00  0.00    +0.150 HD
ATOM     15  O   THR A   2      13.356   8.055   8.031  0.00  0.00    -0.273 OA
BRANCH  13  16
ATOM     16  CA  PHE A   3      16.047   9.033   8.039  0.00  0.00    +0.141 C 
BRANCH  16  17
ATOM     17  C   PHE A   3      17.065   9.170   9.134  0.00  0.00    +0.227 C 
ATOM     18  O   PHE A   3      17.131  10.207   9.755  0.00  0.00    -0.286 OA
ENDBRANCH  16  17
BRANCH  16  19
ATOM     19  CB  PHE A   3      16.558   9.706   6.768  0.00  0.00    +0.054 C 
BRANCH  19  20
ATOM     20  CG  PHE A   3      15.629   9.539   5.616  0.00  0.00    -0.020 A 
ATOM     21  CD2 PHE A   3      14.511  10.385   5.478  0.00  0.00    -0.004 A 
ATOM     22  CE2 PHE A   3      13.643  10.178   4.436  0.00  0.00    -0.000 A 
ATOM     23  CZ  PHE A   3      13.851   9.146   3.530  0.00  0.00    -0.000 A 
ATOM     24  CE1 PHE A   3      14.941   8.304   3.647  0.00  0.00    -0.000 A 
ATOM     25  CD1 PHE A   3      15.817   8.512   4.710  0.00  0.00    -0.004 A 
ENDBRANCH  19  20
ENDBRANCH  16  19
ENDBRANCH  13  16
ENDBRANCH   1  12
BRANCH   1  26
ATOM     26  CB  THR A   2      12.690  10.560  10.249  0.00  0.00    +0.137 C 
ATOM     27  CG2 THR A   2      12.719   9.276  11.110  0.00  0.00    +0.034 C 
BRANCH  26  28
ATOM     28  OG1 THR A   2      13.823  11.468  10.505  0.00  0.00    -0.382 OA
ATOM     29  HG1 THR A   2      13.857  11.688  11.470  0.00  0.00    +0.210 HD
ENDBRANCH  26  28
ENDBRANCH   1  26
TORSDOF 12
REMARK  Name = ../refined-set-2016/4oma/4oma_pocket.pdb
REMARK  229 active torsions:
REMARK  status: ('A' for Active; 'I' for Inactive)
REMARK    1  A    between atoms: _1  and  _3
REMARK    2  A    between atoms: _3  and  _4
REMARK    3  A    between atoms: _3  and  _6
REMARK    4  A    between atoms: _6  and  _7
REMARK    5  A    between atoms: _10  and  _12
REMARK    6  A    between atoms: _12  and  _13
REMARK    7  A    between atoms: _16  and  _18
REMARK    8  A    between atoms: _18  and  _19
REMARK    9  A    between atoms: _18  and  _21
REMARK   10  A    between atoms: _21  and  _22
REMARK   11  A    between atoms: _24  and  _26
REMARK   12  A    between atoms: _26  and  _27
REMARK   13  A    between atoms: _29  and  _31
REMARK   14  A    between atoms: _31  and  _32
REMARK   15  A    between atoms: _31  and  _34
REMARK   16  A    between atoms: _34  and  _35
REMARK   17  A    between atoms: _38  and  _40
REMARK   18  A    between atoms: _40  and  _41
REMARK   19  A    between atoms: _40  and  _43
REMARK   20  A    between atoms: _43  and  _44
REMARK   21  A    between atoms: _46  and  _48
REMARK   22  A    between atoms: _48  and  _49
REMARK   23  A    between atoms: _52  and  _54
REMARK   24  A    between atoms: _54  and  _55
REMARK   25  A    between atoms: _54  and  _57
REMARK   26  A    between atoms: _57  and  _58
REMARK   27  A    between atoms: _61  and  _63
REMARK   28  A    between atoms: _63  and  _64
REMARK   29  A    between atoms: _63  and  _66
REMARK   30  A    between atoms: _66  and  _67
REMARK   31  A    between atoms: _70  and  _72
REMARK   32  A    between atoms: _72  and  _73
REMARK   33  A    between atoms: _76  and  _78
REMARK   34  A    between atoms: _78  and  _79
REMARK   35  A    between atoms: _78  and  _81
REMARK   36  A    between atoms: _81  and  _82
REMARK   37  A    between atoms: _85  and  _87
REMARK   38  A    between atoms: _87  and  _88
REMARK   39  A    between atoms: _87  and  _90
REMARK   40  A    between atoms: _90  and  _91
REMARK   41  A    between atoms: _96  and  _97
REMARK   42  A    between atoms: _99  and  _101
REMARK   43  A    between atoms: _101  and  _102
REMARK   44  A    between atoms: _104  and  _106
REMARK   45  A    between atoms: _106  and  _107
REMARK   46  A    between atoms: _106  and  _109
REMARK   47  A    between atoms: _111  and  _113
REMARK   48  A    between atoms: _113  and  _114
REMARK   49  A    between atoms: _113  and  _116
REMARK   50  A    between atoms: _116  and  _117
REMARK   51  A    between atoms: _120  and  _122
REMARK   52  A    between atoms: _122  and  _123
REMARK   53  A    between atoms: _122  and  _125
REMARK   54  A    between atoms: _125  and  _126
REMARK   55  A    between atoms: _131  and  _132
REMARK   56  A    between atoms: _134  and  _136
REMARK   57  A    between atoms: _136  and  _137
REMARK   58  A    between atoms: _136  and  _139
REMARK   59  A    between atoms: _139  and  _140
REMARK   60  A    between atoms: _143  and  _145
REMARK   61  A    between atoms: _145  and  _146
REMARK   62  A    between atoms: _145  and  _148
REMARK   63  A    between atoms: _148  and  _149
REMARK   64  A    between atoms: _149  and  _150
REMARK   65  A    between atoms: _153  and  _155
REMARK   66  A    between atoms: _155  and  _156
REMARK   67  A    between atoms: _155  and  _158
REMARK   68  A    between atoms: _158  and  _159
REMARK   69  A    between atoms: _163  and  _164
REMARK   70  A    between atoms: _169  and  _171
REMARK   71  A    between atoms: _171  and  _172
REMARK   72  A    between atoms: _175  and  _177
REMARK   73  A    between atoms: _177  and  _178
REMARK   74  A    between atoms: _177  and  _180
REMARK   75  A    between atoms: _180  and  _181
REMARK   76  A    between atoms: _186  and  _188
REMARK   77  A    between atoms: _188  and  _189
REMARK   78  A    between atoms: _188  and  _191
REMARK   79  A    between atoms: _191  and  _192
REMARK   80  A    between atoms: _195  and  _197
REMARK   81  A    between atoms: _197  and  _198
REMARK   82  A    between atoms: _197  and  _200
REMARK   83  A    between atoms: _200  and  _201
REMARK   84  A    between atoms: _206  and  _208
REMARK   85  A    between atoms: _208  and  _209
REMARK   86  A    between atoms: _208  and  _211
REMARK   87  A    between atoms: _211  and  _212
REMARK   88  A    between atoms: _215  and  _217
REMARK   89  A    between atoms: _217  and  _218
REMARK   90  A    between atoms: _217  and  _220
REMARK   91  A    between atoms: _220  and  _221
REMARK   92  A    between atoms: _227  and  _229
REMARK   93  A    between atoms: _229  and  _230
REMARK   94  A    between atoms: _229  and  _232
REMARK   95  A    between atoms: _232  and  _233
REMARK   96  A    between atoms: _233  and  _234
REMARK   97  A    between atoms: _236  and  _238
REMARK   98  A    between atoms: _238  and  _239
REMARK   99  A    between atoms: _238  and  _241
REMARK  100  A    between atoms: _244  and  _246
REMARK  101  A    between atoms: _246  and  _247
REMARK  102  A    between atoms: _246  and  _249
REMARK  103  A    between atoms: _249  and  _250
REMARK  104  A    between atoms: _255  and  _257
REMARK  105  A    between atoms: _257  and  _258
REMARK  106  A    between atoms: _257  and  _260
REMARK  107  A    between atoms: _260  and  _261
REMARK  108  A    between atoms: _263  and  _265
REMARK  109  A    between atoms: _265  and  _266
REMARK  110  A    between atoms: _265  and  _268
REMARK  111  A    between atoms: _271  and  _273
REMARK  112  A    between atoms: _273  and  _274
REMARK  113  A    between atoms: _273  and  _276
REMARK  114  A    between atoms: _276  and  _277
REMARK  115  A    between atoms: _280  and  _282
REMARK  116  A    between atoms: _282  and  _283
REMARK  117  A    between atoms: _282  and  _285
REMARK  118  A    between atoms: _285  and  _286
REMARK  119  A    between atoms: _286  and  _287
REMARK  120  A    between atoms: _287  and  _288
REMARK  121  A    between atoms: _288  and  _289
REMARK  122  A    between atoms: _293  and  _295
REMARK  123  A    between atoms: _295  and  _296
REMARK  124  A    between atoms: _295  and  _298
REMARK  125  A    between atoms: _301  and  _303
REMARK  126  A    between atoms: _303  and  _304
REMARK  127  A    between atoms: _303  and  _306
REMARK  128  A    between atoms: _306  and  _307
REMARK  129  A    between atoms: _310  and  _312
REMARK  130  A    between atoms: _312  and  _313
REMARK  131  A    between atoms: _315  and  _317
REMARK  132  A    between atoms: _317  and  _318
REMARK  133  A    between atoms: _320  and  _322
REMARK  134  A    between atoms: _322  and  _323
REMARK  135  A    between atoms: _322  and  _325
REMARK  136  A    between atoms: _325  and  _326
REMARK  137  A    between atoms: _329  and  _331
REMARK  138  A    between atoms: _331  and  _332
REMARK  139  A    between atoms: _331  and  _334
REMARK  140  A    between atoms: _334  and  _335
REMARK  141  A    between atoms: _338  and  _340
REMARK  142  A    between atoms: _340  and  _341
REMARK  143  A    between atoms: _344  and  _346
REMARK  144  A    between atoms: _346  and  _347
REMARK  145  A    between atoms: _346  and  _349
REMARK  146  A    between atoms: _352  and  _354
REMARK  147  A    between atoms: _354  and  _355
REMARK  148  A    between atoms: _354  and  _357
REMARK  149  A    between atoms: _357  and  _358
REMARK  150  A    between atoms: _360  and  _362
REMARK  151  A    between atoms: _362  and  _363
REMARK  152  A    between atoms: _362  and  _365
REMARK  153  A    between atoms: _365  and  _366
REMARK  154  A    between atoms: _369  and  _371
REMARK  155  A    between atoms: _371  and  _372
REMARK  156  A    between atoms: _374  and  _376
REMARK  157  A    between atoms: _376  and  _377
REMARK  158  A    between atoms: _376  and  _379
REMARK  159  A    between atoms: _379  and  _380
REMARK  160  A    between atoms: _383  and  _385
REMARK  161  A    between atoms: _385  and  _386
REMARK  162  A    between atoms: _385  and  _388
REMARK  163  A    between atoms: _388  and  _389
REMARK  164  A    between atoms: _389  and  _390
REMARK  165  A    between atoms: _395  and  _397
REMARK  166  A    between atoms: _397  and  _398
REMARK  167  A    between atoms: _397  and  _400
REMARK  168  A    between atoms: _400  and  _401
REMARK  169  A    between atoms: _404  and  _406
REMARK  170  A    between atoms: _406  and  _407
REMARK  171  A    between atoms: _406  and  _409
REMARK  172  A    between atoms: _409  and  _410
REMARK  173  A    between atoms: _410  and  _411
REMARK  174  A    between atoms: _411  and  _412
REMARK  175  A    between atoms: _421  and  _423
REMARK  176  A    between atoms: _423  and  _424
REMARK  177  A    between atoms: _423  and  _426
REMARK  178  A    between atoms: _426  and  _427
REMARK  179  A    between atoms: _429  and  _431
REMARK  180  A    between atoms: _431  and  _432
REMARK  181  A    between atoms: _431  and  _434
REMARK  182  A    between atoms: _434  and  _435
REMARK  183  A    between atoms: _438  and  _440
REMARK  184  A    between atoms: _440  and  _441
REMARK  185  A    between atoms: _440  and  _443
REMARK  186  A    between atoms: _443  and  _444
REMARK  187  A    between atoms: _450  and  _452
REMARK  188  A    between atoms: _452  and  _453
REMARK  189  A    between atoms: _452  and  _455
REMARK  190  A    between atoms: _455  and  _456
REMARK  191  A    between atoms: _462  and  _464
REMARK  192  A    between atoms: _464  and  _465
REMARK  193  A    between atoms: _464  and  _467
REMARK  194  A    between atoms: _467  and  _468
REMARK  195  A    between atoms: _471  and  _473
REMARK  196  A    between atoms: _473  and  _474
REMARK  197  A    between atoms: _473  and  _476
REMARK  198  A    between atoms: _476  and  _477
REMARK  199  A    between atoms: _482  and  _483
REMARK  200  A    between atoms: _485  and  _487
REMARK  201  A    between atoms: _487  and  _488
REMARK  202  A    between atoms: _487  and  _490
REMARK  203  A    between atoms: _490  and  _491
REMARK  204  A    between atoms: _494  and  _496
REMARK  205  A    between atoms: _496  and  _497
REMARK  206  A    between atoms: _496  and  _499
REMARK  207  A    between atoms: _499  and  _500
REMARK  208  A    between atoms: _500  and  _501
REMARK  209  A    between atoms: _501  and  _502
REMARK  210  A    between atoms: _511  and  _513
REMARK  211  A    between atoms: _513  and  _514
REMARK  212  A    between atoms: _513  and  _516
REMARK  213  A    between atoms: _516  and  _517
REMARK  214  A    between atoms: _520  and  _522
REMARK  215  A    between atoms: _522  and  _523
REMARK  216  A    between atoms: _522  and  _525
REMARK  217  A    between atoms: _525  and  _526
REMARK  218  A    between atoms: _529  and  _531
REMARK  219  A    between atoms: _531  and  _532
REMARK  220  A    between atoms: _531  and  _534
REMARK  221  A    between atoms: _534  and  _535
REMARK  222  A    between atoms: _535  and  _536
REMARK  223  A    between atoms: _536  and  _537
REMARK  224  A    between atoms: _537  and  _538
REMARK  225  A    between atoms: _542  and  _544
REMARK  226  A    between atoms: _544  and  _545
REMARK  227  A    between atoms: _547  and  _549
REMARK  228  A    between atoms: _549  and  _550
REMARK  229  A    between atoms: _549  and  _552
REMARK                            x       y       z     vdW  Elec       q    Type
REMARK                         _______ _______ _______ _____ _____    ______ ____
ROOT
ATOM      1  CB  PHE A   1      21.025  20.218   8.278  0.00  0.00    +0.051 C 
ENDROOT
BRANCH   1   2
ATOM      2  CG  PHE A   1      19.725  19.674   8.790  0.00  0.00    -0.020 A 
ATOM      3  CD2 PHE A   1      19.660  18.413   9.357  0.00  0.00    -0.004 A 
ATOM      4  CE2 PHE A   1      18.455  17.915   9.830  0.00  0.00    -0.000 A 
ATOM      5  CZ  PHE A   1      17.302  18.677   9.722  0.00  0.00    -0.000 A 
ATOM      6  CE1 PHE A   1      17.357  19.929   9.146  0.00  0.00    -0.000 A 
ATOM      7  CD1 PHE A   1      18.561  20.424   8.680  0.00  0.00    -0.004 A 
ENDBRANCH   1   2
BRANCH   1   8
ATOM      8  CA  PHE A   1      21.205  20.053   6.774  0.00  0.00    +0.137 C 
BRANCH   8   9
ATOM      9  N   PHE A   1      22.040  18.910   6.473  0.00  0.00    -0.239 NA
ATOM     10  H   PHE A   1      22.495  18.390   7.250  0.00  0.00    +0.142 HD
ENDBRANCH   8   9
BRANCH   8  11
ATOM     11  C   PHE A   1      21.829  21.302   6.228  0.00  0.00    +0.224 C 
ATOM     12  O   PHE A   1      21.127  22.246   5.839  0.00  0.00    -0.287 OA
ENDBRANCH   8  11
ENDBRANCH   1   8
TORSDOF 4
REMARK  Name = ../refined-set-2016/4oma/4oma_pocket.pdb
REMARK  229 active torsions:
REMARK  status: ('A' for Active; 'I' for Inactive)
REMARK    1  A    between atoms: _1  and  _3
REMARK    2  A    between atoms: _3  and  _4
REMARK    3  A    between atoms: _3  and  _6
REMARK    4  A    between atoms: _6  and  _7
REMARK    5  A    between atoms: _10  and  _12
REMARK    6  A    between atoms: _12  and  _13
REMARK    7  A    between atoms: _16  and  _18
REMARK    8  A    between atoms: _18  and  _19
REMARK    9  A    between atoms: _18  and  _21
REMARK   10  A    between atoms: _21  and  _22
REMARK   11  A    between atoms: _24  and  _26
REMARK   12  A    between atoms: _26  and  _27
REMARK   13  A    between atoms: _29  and  _31
REMARK   14  A    between atoms: _31  and  _32
REMARK   15  A    between atoms: _31  and  _34
REMARK   16  A    between atoms: _34  and  _35
REMARK   17  A    between atoms: _38  and  _40
REMARK   18  A    between atoms: _40  and  _41
REMARK   19  A    between atoms: _40  and  _43
REMARK   20  A    between atoms: _43  and  _44
REMARK   21  A    between atoms: _46  and  _48
REMARK   22  A    between atoms: _48  and  _49
REMARK   23  A    between atoms: _52  and  _54
REMARK   24  A    between atoms: _54  and  _55
REMARK   25  A    between atoms: _54  and  _57
REMARK   26  A    between atoms: _57  and  _58
REMARK   27  A    between atoms: _61  and  _63
REMARK   28  A    between atoms: _63  and  _64
REMARK   29  A    between atoms: _63  and  _66
REMARK   30  A    between atoms: _66  and  _67
REMARK   31  A    between atoms: _70  and  _72
REMARK   32  A    between atoms: _72  and  _73
REMARK   33  A    between atoms: _76  and  _78
REMARK   34  A    between atoms: _78  and  _79
REMARK   35  A    between atoms: _78  and  _81
REMARK   36  A    between atoms: _81  and  _82
REMARK   37  A    between atoms: _85  and  _87
REMARK   38  A    between atoms: _87  and  _88
REMARK   39  A    between atoms: _87  and  _90
REMARK   40  A    between atoms: _90  and  _91
REMARK   41  A    between atoms: _96  and  _97
REMARK   42  A    between atoms: _99  and  _101
REMARK   43  A    between atoms: _101  and  _102
REMARK   44  A    between atoms: _104  and  _106
REMARK   45  A    between atoms: _106  and  _107
REMARK   46  A    between atoms: _106  and  _109
REMARK   47  A    between atoms: _111  and  _113
REMARK   48  A    between atoms: _113  and  _114
REMARK   49  A    between atoms: _113  and  _116
REMARK   50  A    between atoms: _116  and  _117
REMARK   51  A    between atoms: _120  and  _122
REMARK   52  A    between atoms: _122  and  _123
REMARK   53  A    between atoms: _122  and  _125
REMARK   54  A    between atoms: _125  and  _126
REMARK   55  A    between atoms: _131  and  _132
REMARK   56  A    between atoms: _134  and  _136
REMARK   57  A    between atoms: _136  and  _137
REMARK   58  A    between atoms: _136  and  _139
REMARK   59  A    between atoms: _139  and  _140
REMARK   60  A    between atoms: _143  and  _145
REMARK   61  A    between atoms: _145  and  _146
REMARK   62  A    between atoms: _145  and  _148
REMARK   63  A    between atoms: _148  and  _149
REMARK   64  A    between atoms: _149  and  _150
REMARK   65  A    between atoms: _153  and  _155
REMARK   66  A    between atoms: _155  and  _156
REMARK   67  A    between atoms: _155  and  _158
REMARK   68  A    between atoms: _158  and  _159
REMARK   69  A    between atoms: _163  and  _164
REMARK   70  A    between atoms: _169  and  _171
REMARK   71  A    between atoms: _171  and  _172
REMARK   72  A    between atoms: _175  and  _177
REMARK   73  A    between atoms: _177  and  _178
REMARK   74  A    between atoms: _177  and  _180
REMARK   75  A    between atoms: _180  and  _181
REMARK   76  A    between atoms: _186  and  _188
REMARK   77  A    between atoms: _188  and  _189
REMARK   78  A    between atoms: _188  and  _191
REMARK   79  A    between atoms: _191  and  _192
REMARK   80  A    between atoms: _195  and  _197
REMARK   81  A    between atoms: _197  and  _198
REMARK   82  A    between atoms: _197  and  _200
REMARK   83  A    between atoms: _200  and  _201
REMARK   84  A    between atoms: _206  and  _208
REMARK   85  A    between atoms: _208  and  _209
REMARK   86  A    between atoms: _208  and  _211
REMARK   87  A    between atoms: _211  and  _212
REMARK   88  A    between atoms: _215  and  _217
REMARK   89  A    between atoms: _217  and  _218
REMARK   90  A    between atoms: _217  and  _220
REMARK   91  A    between atoms: _220  and  _221
REMARK   92  A    between atoms: _227  and  _229
REMARK   93  A    between atoms: _229  and  _230
REMARK   94  A    between atoms: _229  and  _232
REMARK   95  A    between atoms: _232  and  _233
REMARK   96  A    between atoms: _233  and  _234
REMARK   97  A    between atoms: _236  and  _238
REMARK   98  A    between atoms: _238  and  _239
REMARK   99  A    between atoms: _238  and  _241
REMARK  100  A    between atoms: _244  and  _246
REMARK  101  A    between atoms: _246  and  _247
REMARK  102  A    between atoms: _246  and  _249
REMARK  103  A    between atoms: _249  and  _250
REMARK  104  A    between atoms: _255  and  _257
REMARK  105  A    between atoms: _257  and  _258
REMARK  106  A    between atoms: _257  and  _260
REMARK  107  A    between atoms: _260  and  _261
REMARK  108  A    between atoms: _263  and  _265
REMARK  109  A    between atoms: _265  and  _266
REMARK  110  A    between atoms: _265  and  _268
REMARK  111  A    between atoms: _271  and  _273
REMARK  112  A    between atoms: _273  and  _274
REMARK  113  A    between atoms: _273  and  _276
REMARK  114  A    between atoms: _276  and  _277
REMARK  115  A    between atoms: _280  and  _282
REMARK  116  A    between atoms: _282  and  _283
REMARK  117  A    between atoms: _282  and  _285
REMARK  118  A    between atoms: _285  and  _286
REMARK  119  A    between atoms: _286  and  _287
REMARK  120  A    between atoms: _287  and  _288
REMARK  121  A    between atoms: _288  and  _289
REMARK  122  A    between atoms: _293  and  _295
REMARK  123  A    between atoms: _295  and  _296
REMARK  124  A    between atoms: _295  and  _298
REMARK  125  A    between atoms: _301  and  _303
REMARK  126  A    between atoms: _303  and  _304
REMARK  127  A    between atoms: _303  and  _306
REMARK  128  A    between atoms: _306  and  _307
REMARK  129  A    between atoms: _310  and  _312
REMARK  130  A    between atoms: _312  and  _313
REMARK  131  A    between atoms: _315  and  _317
REMARK  132  A    between atoms: _317  and  _318
REMARK  133  A    between atoms: _320  and  _322
REMARK  134  A    between atoms: _322  and  _323
REMARK  135  A    between atoms: _322  and  _325
REMARK  136  A    between atoms: _325  and  _326
REMARK  137  A    between atoms: _329  and  _331
REMARK  138  A    between atoms: _331  and  _332
REMARK  139  A    between atoms: _331  and  _334
REMARK  140  A    between atoms: _334  and  _335
REMARK  141  A    between atoms: _338  and  _340
REMARK  142  A    between atoms: _340  and  _341
REMARK  143  A    between atoms: _344  and  _346
REMARK  144  A    between atoms: _346  and  _347
REMARK  145  A    between atoms: _346  and  _349
REMARK  146  A    between atoms: _352  and  _354
REMARK  147  A    between atoms: _354  and  _355
REMARK  148  A    between atoms: _354  and  _357
REMARK  149  A    between atoms: _357  and  _358
REMARK  150  A    between atoms: _360  and  _362
REMARK  151  A    between atoms: _362  and  _363
REMARK  152  A    between atoms: _362  and  _365
REMARK  153  A    between atoms: _365  and  _366
REMARK  154  A    between atoms: _369  and  _371
REMARK  155  A    between atoms: _371  and  _372
REMARK  156  A    between atoms: _374  and  _376
REMARK  157  A    between atoms: _376  and  _377
REMARK  158  A    between atoms: _376  and  _379
REMARK  159  A    between atoms: _379  and  _380
REMARK  160  A    between atoms: _383  and  _385
REMARK  161  A    between atoms: _385  and  _386
REMARK  162  A    between atoms: _385  and  _388
REMARK  163  A    between atoms: _388  and  _389
REMARK  164  A    between atoms: _389  and  _390
REMARK  165  A    between atoms: _395  and  _397
REMARK  166  A    between atoms: _397  and  _398
REMARK  167  A    between atoms: _397  and  _400
REMARK  168  A    between atoms: _400  and  _401
REMARK  169  A    between atoms: _404  and  _406
REMARK  170  A    between atoms: _406  and  _407
REMARK  171  A    between atoms: _406  and  _409
REMARK  172  A    between atoms: _409  and  _410
REMARK  173  A    between atoms: _410  and  _411
REMARK  174  A    between atoms: _411  and  _412
REMARK  175  A    between atoms: _421  and  _423
REMARK  176  A    between atoms: _423  and  _424
REMARK  177  A    between atoms: _423  and  _426
REMARK  178  A    between atoms: _426  and  _427
REMARK  179  A    between atoms: _429  and  _431
REMARK  180  A    between atoms: _431  and  _432
REMARK  181  A    between atoms: _431  and  _434
REMARK  182  A    between atoms: _434  and  _435
REMARK  183  A    between atoms: _438  and  _440
REMARK  184  A    between atoms: _440  and  _441
REMARK  185  A    between atoms: _440  and  _443
REMARK  186  A    between atoms: _443  and  _444
REMARK  187  A    between atoms: _450  and  _452
REMARK  188  A    between atoms: _452  and  _453
REMARK  189  A    between atoms: _452  and  _455
REMARK  190  A    between atoms: _455  and  _456
REMARK  191  A    between atoms: _462  and  _464
REMARK  192  A    between atoms: _464  and  _465
REMARK  193  A    between atoms: _464  and  _467
REMARK  194  A    between atoms: _467  and  _468
REMARK  195  A    between atoms: _471  and  _473
REMARK  196  A    between atoms: _473  and  _474
REMARK  197  A    between atoms: _473  and  _476
REMARK  198  A    between atoms: _476  and  _477
REMARK  199  A    between atoms: _482  and  _483
REMARK  200  A    between atoms: _485  and  _487
REMARK  201  A    between atoms: _487  and  _488
REMARK  202  A    between atoms: _487  and  _490
REMARK  203  A    between atoms: _490  and  _491
REMARK  204  A    between atoms: _494  and  _496
REMARK  205  A    between atoms: _496  and  _497
REMARK  206  A    between atoms: _496  and  _499
REMARK  207  A    between atoms: _499  and  _500
REMARK  208  A    between atoms: _500  and  _501
REMARK  209  A    between atoms: _501  and  _502
REMARK  210  A    between atoms: _511  and  _513
REMARK  211  A    between atoms: _513  and  _514
REMARK  212  A    between atoms: _513  and  _516
REMARK  213  A    between atoms: _516  and  _517
REMARK  214  A    between atoms: _520  and  _522
REMARK  215  A    between atoms: _522  and  _523
REMARK  216  A    between atoms: _522  and  _525
REMARK  217  A    between atoms: _525  and  _526
REMARK  218  A    between atoms: _529  and  _531
REMARK  219  A    between atoms: _531  and  _532
REMARK  220  A    between atoms: _531  and  _534
REMARK  221  A    between atoms: _534  and  _535
REMARK  222  A    between atoms: _535  and  _536
REMARK  223  A    between atoms: _536  and  _537
REMARK  224  A    between atoms: _537  and  _538
REMARK  225  A    between atoms: _542  and  _544
REMARK  226  A    between atoms: _544  and  _545
REMARK  227  A    between atoms: _547  and  _549
REMARK  228  A    between atoms: _549  and  _550
REMARK  229  A    between atoms: _549  and  _552
REMARK                            x       y       z     vdW  Elec       q    Type
REMARK                         _______ _______ _______ _____ _____    ______ ____
ROOT
ATOM      1  CA  THR A   3      10.234  12.951   3.729  0.00  0.00    +0.176 C 
ENDROOT
BRANCH   1   2
ATOM      2  C   THR A   3       9.537  14.215   3.175  0.00  0.00    +0.243 C 
ATOM      3  N   ARG A   4       9.203  15.178   4.022  0.00  0.00    -0.297 N 
ATOM      4  H   ARG A   4       9.299  15.044   5.049  0.00  0.00    +0.150 HD
ATOM      5  O   THR A   3       9.403  14.349   1.953  0.00  0.00    -0.273 OA
BRANCH   3   6
ATOM      6  CA  ARG A   4       8.693  16.443   3.469  0.00  0.00    +0.149 C 
BRANCH   6   7
ATOM      7  C   ARG A   4       9.700  17.159   2.566  0.00  0.00    +0.241 C 
ATOM      8  N   LEU A   5      10.994  17.026   2.889  0.00  0.00    -0.298 N 
ATOM      9  H   LEU A   5      11.251  16.458   3.721  0.00  0.00    +0.150 HD
ATOM     10  O   ARG A   4       9.311  17.812   1.596  0.00  0.00    -0.273 OA
BRANCH   8  11
ATOM     11  CA  LEU A   5      12.038  17.647   2.117  0.00  0.00    +0.137 C 
BRANCH  11  12
ATOM     12  C   LEU A   5      12.391  16.855   0.883  0.00  0.00    +0.227 C 
ATOM     13  O   LEU A   5      12.751  17.453  -0.136  0.00  0.00    -0.286 OA
ENDBRANCH  11  12
BRANCH  11  14
ATOM     14  CB  LEU A   5      13.342  17.775   2.969  0.00  0.00    +0.028 C 
BRANCH  14  15
ATOM     15  CG  LEU A   5      13.308  18.553   4.301  0.00  0.00    +0.002 C 
ATOM     16  CD2 LEU A   5      14.699  18.794   4.863  0.00  0.00    +0.000 C 
ATOM     17  CD1 LEU A   5      12.647  19.909   4.133  0.00  0.00    +0.000 C 
ENDBRANCH  14  15
ENDBRANCH  11  14
ENDBRANCH   8  11
ENDBRANCH   6   7
BRANCH   6  18
ATOM     18  CB  ARG A   4       8.196  17.394   4.552  0.00  0.00    +0.033 C 
BRANCH  18  19
ATOM     19  CG  ARG A   4       7.892  18.805   4.048  0.00  0.00    +0.045 C 
BRANCH  19  20
ATOM     20  CD  ARG A   4       6.811  19.469   4.898  0.00  0.00    +0.174 C 
BRANCH  20  21
ATOM     21  NE  ARG A   4       7.132  19.372   6.313  0.00  0.00    -0.265 N 
ATOM     22  CZ  ARG A   4       8.055  20.108   6.901  0.00  0.00    +0.342 C 
ATOM     23  NH2 ARG A   4       8.319  19.912   8.162  0.00  0.00    -0.292 N 
ATOM     24 HH21 ARG A   4       7.804  19.181   8.694  0.00  0.00    +0.255 HD
ATOM     25 HH22 ARG A   4       9.045  20.486   8.637  0.00  0.00    +0.255 HD
ATOM     26  NH1 ARG A   4       8.686  21.073   6.214  0.00  0.00    -0.292 N 
ATOM     27 HH11 ARG A   4       9.414  21.652   6.680  0.00  0.00    +0.255 HD
ATOM     28 HH12 ARG A   4       8.447  21.242   5.216  0.00  0.00    +0.255 HD
ATOM     29  HE  ARG A   4       6.606  18.686   6.892  0.00  0.00    +0.259 HD
ENDBRANCH  20  21
ENDBRANCH  19  20
ENDBRANCH  18  19
ENDBRANCH   6  18
ENDBRANCH   3   6
ENDBRANCH   1   2
BRANCH   1  31
ATOM     30  C   TYR A   2      12.092  13.945   4.973  0.00  0.00    +0.241 C 
ATOM     31  N   THR A   3      11.052  13.131   4.955  0.00  0.00    -0.295 N 
ATOM     32  H   THR A   3      10.801  12.606   5.817  0.00  0.00    +0.150 HD
ATOM     33  O   TYR A   2      12.298  14.777   4.084  0.00  0.00    -0.273 OA
BRANCH  30  34
ATOM     34  CA  TYR A   2      12.992  13.830   6.215  0.00  0.00    +0.153 C 
BRANCH  34  37
ATOM     35  C   ILE A   1      15.325  13.570   6.553  0.00  0.00    +0.238 C 
ATOM     36  O   ILE A   1      15.161  13.105   7.673  0.00  0.00    -0.274 OA
ATOM     37  N   TYR A   2      14.330  13.897   5.760  0.00  0.00    -0.297 N 
ATOM     38  H   TYR A   2      14.528  14.208   4.788  0.00  0.00    +0.150 HD
BRANCH  35  39
ATOM     39  CA  ILE A   1      16.751  13.889   5.996  0.00  0.00    +0.145 C 
BRANCH  39  40
ATOM     40  N   ILE A   1      16.959  13.377   4.669  0.00  0.00    -0.238 NA
ATOM     41  H   ILE A   1      16.266  13.617   3.931  0.00  0.00    +0.142 HD
ENDBRANCH  39  40
BRANCH  39  42
ATOM     42  CB  ILE A   1      16.880  15.397   5.998  0.00  0.00    +0.025 C 
ATOM     43  CG2 ILE A   1      16.573  15.937   7.375  0.00  0.00    +0.002 C 
BRANCH  42  44
ATOM     44  CG1 ILE A   1      18.347  15.848   5.752  0.00  0.00    +0.002 C 
ATOM     45  CD1 ILE A   1      18.465  17.323   5.447  0.00  0.00    +0.000 C 
ENDBRANCH  42  44
ENDBRANCH  39  42
ENDBRANCH  35  39
ENDBRANCH  34  37
BRANCH  34  46
ATOM     46  CB  TYR A   2      12.758  14.994   7.154  0.00  0.00    +0.055 C 
BRANCH  46  47
ATOM     47  CG  TYR A   2      11.400  15.082   7.803  0.00  0.00    -0.020 A 
ATOM     48  CD2 TYR A   2      11.083  14.285   8.893  0.00  0.00    -0.001 A 
ATOM     49  CE2 TYR A   2       9.830  14.387   9.540  0.00  0.00    +0.036 A 
ATOM     50  CZ  TYR A   2       8.917  15.298   9.089  0.00  0.00    +0.134 A 
ATOM     51  CE1 TYR A   2       9.183  16.098   7.989  0.00  0.00    +0.036 A 
ATOM     52  CD1 TYR A   2      10.439  16.036   7.360  0.00  0.00    -0.001 A 
BRANCH  50  53
ATOM     53  OH  TYR A   2       7.693  15.370   9.761  0.00  0.00    -0.506 OA
ATOM     54  HH  TYR A   2       7.563  16.287  10.109  0.00  0.00    +0.292 HD
ENDBRANCH  50  53
ENDBRANCH  46  47
ENDBRANCH  34  46
ENDBRANCH  30  34
ENDBRANCH   1  31
BRANCH   1  55
ATOM     55  CB  THR A   3       9.312  11.768   3.906  0.00  0.00    +0.137 C 
ATOM     56  CG2 THR A   3       8.366  11.612   2.755  0.00  0.00    +0.034 C 
BRANCH  55  57
ATOM     57  OG1 THR A   3      10.114  10.594   3.869  0.00  0.00    -0.382 OA
ATOM     58  HG1 THR A   3       9.537   9.798   3.983  0.00  0.00    +0.210 HD
ENDBRANCH  55  57
ENDBRANCH   1  55
TORSDOF 23
REMARK  Name = ../refined-set-2016/4oma/4oma_pocket.pdb
REMARK  229 active torsions:
REMARK  status: ('A' for Active; 'I' for Inactive)
REMARK    1  A    between atoms: _1  and  _3
REMARK    2  A    between atoms: _3  and  _4
REMARK    3  A    between atoms: _3  and  _6
REMARK    4  A    between atoms: _6  and  _7
REMARK    5  A    between atoms: _10  and  _12
REMARK    6  A    between atoms: _12  and  _13
REMARK    7  A    between atoms: _16  and  _18
REMARK    8  A    between atoms: _18  and  _19
REMARK    9  A    between atoms: _18  and  _21
REMARK   10  A    between atoms: _21  and  _22
REMARK   11  A    between atoms: _24  and  _26
REMARK   12  A    between atoms: _26  and  _27
REMARK   13  A    between atoms: _29  and  _31
REMARK   14  A    between atoms: _31  and  _32
REMARK   15  A    between atoms: _31  and  _34
REMARK   16  A    between atoms: _34  and  _35
REMARK   17  A    between atoms: _38  and  _40
REMARK   18  A    between atoms: _40  and  _41
REMARK   19  A    between atoms: _40  and  _43
REMARK   20  A    between atoms: _43  and  _44
REMARK   21  A    between atoms: _46  and  _48
REMARK   22  A    between atoms: _48  and  _49
REMARK   23  A    between atoms: _52  and  _54
REMARK   24  A    between atoms: _54  and  _55
REMARK   25  A    between atoms: _54  and  _57
REMARK   26  A    between atoms: _57  and  _58
REMARK   27  A    between atoms: _61  and  _63
REMARK   28  A    between atoms: _63  and  _64
REMARK   29  A    between atoms: _63  and  _66
REMARK   30  A    between atoms: _66  and  _67
REMARK   31  A    between atoms: _70  and  _72
REMARK   32  A    between atoms: _72  and  _73
REMARK   33  A    between atoms: _76  and  _78
REMARK   34  A    between atoms: _78  and  _79
REMARK   35  A    between atoms: _78  and  _81
REMARK   36  A    between atoms: _81  and  _82
REMARK   37  A    between atoms: _85  and  _87
REMARK   38  A    between atoms: _87  and  _88
REMARK   39  A    between atoms: _87  and  _90
REMARK   40  A    between atoms: _90  and  _91
REMARK   41  A    between atoms: _96  and  _97
REMARK   42  A    between atoms: _99  and  _101
REMARK   43  A    between atoms: _101  and  _102
REMARK   44  A    between atoms: _104  and  _106
REMARK   45  A    between atoms: _106  and  _107
REMARK   46  A    between atoms: _106  and  _109
REMARK   47  A    between atoms: _111  and  _113
REMARK   48  A    between atoms: _113  and  _114
REMARK   49  A    between atoms: _113  and  _116
REMARK   50  A    between atoms: _116  and  _117
REMARK   51  A    between atoms: _120  and  _122
REMARK   52  A    between atoms: _122  and  _123
REMARK   53  A    between atoms: _122  and  _125
REMARK   54  A    between atoms: _125  and  _126
REMARK   55  A    between atoms: _131  and  _132
REMARK   56  A    between atoms: _134  and  _136
REMARK   57  A    between atoms: _136  and  _137
REMARK   58  A    between atoms: _136  and  _139
REMARK   59  A    between atoms: _139  and  _140
REMARK   60  A    between atoms: _143  and  _145
REMARK   61  A    between atoms: _145  and  _146
REMARK   62  A    between atoms: _145  and  _148
REMARK   63  A    between atoms: _148  and  _149
REMARK   64  A    between atoms: _149  and  _150
REMARK   65  A    between atoms: _153  and  _155
REMARK   66  A    between atoms: _155  and  _156
REMARK   67  A    between atoms: _155  and  _158
REMARK   68  A    between atoms: _158  and  _159
REMARK   69  A    between atoms: _163  and  _164
REMARK   70  A    between atoms: _169  and  _171
REMARK   71  A    between atoms: _171  and  _172
REMARK   72  A    between atoms: _175  and  _177
REMARK   73  A    between atoms: _177  and  _178
REMARK   74  A    between atoms: _177  and  _180
REMARK   75  A    between atoms: _180  and  _181
REMARK   76  A    between atoms: _186  and  _188
REMARK   77  A    between atoms: _188  and  _189
REMARK   78  A    between atoms: _188  and  _191
REMARK   79  A    between atoms: _191  and  _192
REMARK   80  A    between atoms: _195  and  _197
REMARK   81  A    between atoms: _197  and  _198
REMARK   82  A    between atoms: _197  and  _200
REMARK   83  A    between atoms: _200  and  _201
REMARK   84  A    between atoms: _206  and  _208
REMARK   85  A    between atoms: _208  and  _209
REMARK   86  A    between atoms: _208  and  _211
REMARK   87  A    between atoms: _211  and  _212
REMARK   88  A    between atoms: _215  and  _217
REMARK   89  A    between atoms: _217  and  _218
REMARK   90  A    between atoms: _217  and  _220
REMARK   91  A    between atoms: _220  and  _221
REMARK   92  A    between atoms: _227  and  _229
REMARK   93  A    between atoms: _229  and  _230
REMARK   94  A    between atoms: _229  and  _232
REMARK   95  A    between atoms: _232  and  _233
REMARK   96  A    between atoms: _233  and  _234
REMARK   97  A    between atoms: _236  and  _238
REMARK   98  A    between atoms: _238  and  _239
REMARK   99  A    between atoms: _238  and  _241
REMARK  100  A    between atoms: _244  and  _246
REMARK  101  A    between atoms: _246  and  _247
REMARK  102  A    between atoms: _246  and  _249
REMARK  103  A    between atoms: _249  and  _250
REMARK  104  A    between atoms: _255  and  _257
REMARK  105  A    between atoms: _257  and  _258
REMARK  106  A    between atoms: _257  and  _260
REMARK  107  A    between atoms: _260  and  _261
REMARK  108  A    between atoms: _263  and  _265
REMARK  109  A    between atoms: _265  and  _266
REMARK  110  A    between atoms: _265  and  _268
REMARK  111  A    between atoms: _271  and  _273
REMARK  112  A    between atoms: _273  and  _274
REMARK  113  A    between atoms: _273  and  _276
REMARK  114  A    between atoms: _276  and  _277
REMARK  115  A    between atoms: _280  and  _282
REMARK  116  A    between atoms: _282  and  _283
REMARK  117  A    between atoms: _282  and  _285
REMARK  118  A    between atoms: _285  and  _286
REMARK  119  A    between atoms: _286  and  _287
REMARK  120  A    between atoms: _287  and  _288
REMARK  121  A    between atoms: _288  and  _289
REMARK  122  A    between atoms: _293  and  _295
REMARK  123  A    between atoms: _295  and  _296
REMARK  124  A    between atoms: _295  and  _298
REMARK  125  A    between atoms: _301  and  _303
REMARK  126  A    between atoms: _303  and  _304
REMARK  127  A    between atoms: _303  and  _306
REMARK  128  A    between atoms: _306  and  _307
REMARK  129  A    between atoms: _310  and  _312
REMARK  130  A    between atoms: _312  and  _313
REMARK  131  A    between atoms: _315  and  _317
REMARK  132  A    between atoms: _317  and  _318
REMARK  133  A    between atoms: _320  and  _322
REMARK  134  A    between atoms: _322  and  _323
REMARK  135  A    between atoms: _322  and  _325
REMARK  136  A    between atoms: _325  and  _326
REMARK  137  A    between atoms: _329  and  _331
REMARK  138  A    between atoms: _331  and  _332
REMARK  139  A    between atoms: _331  and  _334
REMARK  140  A    between atoms: _334  and  _335
REMARK  141  A    between atoms: _338  and  _340
REMARK  142  A    between atoms: _340  and  _341
REMARK  143  A    between atoms: _344  and  _346
REMARK  144  A    between atoms: _346  and  _347
REMARK  145  A    between atoms: _346  and  _349
REMARK  146  A    between atoms: _352  and  _354
REMARK  147  A    between atoms: _354  and  _355
REMARK  148  A    between atoms: _354  and  _357
REMARK  149  A    between atoms: _357  and  _358
REMARK  150  A    between atoms: _360  and  _362
REMARK  151  A    between atoms: _362  and  _363
REMARK  152  A    between atoms: _362  and  _365
REMARK  153  A    between atoms: _365  and  _366
REMARK  154  A    between atoms: _369  and  _371
REMARK  155  A    between atoms: _371  and  _372
REMARK  156  A    between atoms: _374  and  _376
REMARK  157  A    between atoms: _376  and  _377
REMARK  158  A    between atoms: _376  and  _379
REMARK  159  A    between atoms: _379  and  _380
REMARK  160  A    between atoms: _383  and  _385
REMARK  161  A    between atoms: _385  and  _386
REMARK  162  A    between atoms: _385  and  _388
REMARK  163  A    between atoms: _388  and  _389
REMARK  164  A    between atoms: _389  and  _390
REMARK  165  A    between atoms: _395  and  _397
REMARK  166  A    between atoms: _397  and  _398
REMARK  167  A    between atoms: _397  and  _400
REMARK  168  A    between atoms: _400  and  _401
REMARK  169  A    between atoms: _404  and  _406
REMARK  170  A    between atoms: _406  and  _407
REMARK  171  A    between atoms: _406  and  _409
REMARK  172  A    between atoms: _409  and  _410
REMARK  173  A    between atoms: _410  and  _411
REMARK  174  A    between atoms: _411  and  _412
REMARK  175  A    between atoms: _421  and  _423
REMARK  176  A    between atoms: _423  and  _424
REMARK  177  A    between atoms: _423  and  _426
REMARK  178  A    between atoms: _426  and  _427
REMARK  179  A    between atoms: _429  and  _431
REMARK  180  A    between atoms: _431  and  _432
REMARK  181  A    between atoms: _431  and  _434
REMARK  182  A    between atoms: _434  and  _435
REMARK  183  A    between atoms: _438  and  _440
REMARK  184  A    between atoms: _440  and  _441
REMARK  185  A    between atoms: _440  and  _443
REMARK  186  A    between atoms: _443  and  _444
REMARK  187  A    between atoms: _450  and  _452
REMARK  188  A    between atoms: _452  and  _453
REMARK  189  A    between atoms: _452  and  _455
REMARK  190  A    between atoms: _455  and  _456
REMARK  191  A    between atoms: _462  and  _464
REMARK  192  A    between atoms: _464  and  _465
REMARK  193  A    between atoms: _464  and  _467
REMARK  194  A    between atoms: _467  and  _468
REMARK  195  A    between atoms: _471  and  _473
REMARK  196  A    between atoms: _473  and  _474
REMARK  197  A    between atoms: _473  and  _476
REMARK  198  A    between atoms: _476  and  _477
REMARK  199  A    between atoms: _482  and  _483
REMARK  200  A    between atoms: _485  and  _487
REMARK  201  A    between atoms: _487  and  _488
REMARK  202  A    between atoms: _487  and  _490
REMARK  203  A    between atoms: _490  and  _491
REMARK  204  A    between atoms: _494  and  _496
REMARK  205  A    between atoms: _496  and  _497
REMARK  206  A    between atoms: _496  and  _499
REMARK  207  A    between atoms: _499  and  _500
REMARK  208  A    between atoms: _500  and  _501
REMARK  209  A    between atoms: _501  and  _502
REMARK  210  A    between atoms: _511  and  _513
REMARK  211  A    between atoms: _513  and  _514
REMARK  212  A    between atoms: _513  and  _516
REMARK  213  A    between atoms: _516  and  _517
REMARK  214  A    between atoms: _520  and  _522
REMARK  215  A    between atoms: _522  and  _523
REMARK  216  A    between atoms: _522  and  _525
REMARK  217  A    between atoms: _525  and  _526
REMARK  218  A    between atoms: _529  and  _531
REMARK  219  A    between atoms: _531  and  _532
REMARK  220  A    between atoms: _531  and  _534
REMARK  221  A    between atoms: _534  and  _535
REMARK  222  A    between atoms: _535  and  _536
REMARK  223  A    between atoms: _536  and  _537
REMARK  224  A    between atoms: _537  and  _538
REMARK  225  A    between atoms: _542  and  _544
REMARK  226  A    between atoms: _544  and  _545
REMARK  227  A    between atoms: _547  and  _549
REMARK  228  A    between atoms: _549  and  _550
REMARK  229  A    between atoms: _549  and  _552
REMARK                            x       y       z     vdW  Elec       q    Type
REMARK                         _______ _______ _______ _____ _____    ______ ____
ROOT
ATOM      1  C   LEU A   1       7.212  23.007   1.032  0.00  0.00    +0.238 C 
ATOM      2  O   LEU A   1       6.297  22.762   1.815  0.00  0.00    -0.274 OA
ATOM      3  N   LYS A   2       8.453  23.293   1.455  0.00  0.00    -0.298 N 
ATOM      4  H   LYS A   2       9.135  23.677   0.770  0.00  0.00    +0.150 HD
ENDROOT
BRANCH   1   5
ATOM      5  CA  LEU A   1       6.939  23.138  -0.471  0.00  0.00    +0.145 C 
BRANCH   5   6
ATOM      6  N   LEU A   1       7.483  24.334  -1.010  0.00  0.00    -0.238 NA
ATOM      7  H   LEU A   1       8.371  24.290  -1.549  0.00  0.00    +0.142 HD
ENDBRANCH   5   6
BRANCH   5   8
ATOM      8  CB  LEU A   1       7.332  21.952  -1.335  0.00  0.00    +0.026 C 
BRANCH   8   9
ATOM      9  CG  LEU A   1       6.523  20.703  -1.279  0.00  0.00    +0.002 C 
ATOM     10  CD2 LEU A   1       6.719  20.043   0.077  0.00  0.00    +0.000 C 
ATOM     11  CD1 LEU A   1       7.018  19.743  -2.309  0.00  0.00    +0.000 C 
ENDBRANCH   8   9
ENDBRANCH   5   8
ENDBRANCH   1   5
BRANCH   3  12
ATOM     12  CA  LYS A   2       8.882  23.092   2.811  0.00  0.00    +0.137 C 
BRANCH  12  13
ATOM     13  C   LYS A   2       8.142  23.971   3.781  0.00  0.00    +0.227 C 
ATOM     14  O   LYS A   2       7.745  23.499   4.863  0.00  0.00    -0.286 OA
ENDBRANCH  12  13
BRANCH  12  15
ATOM     15  CB  LYS A   2      10.463  23.377   2.984  0.00  0.00    +0.028 C 
BRANCH  15  16
ATOM     16  CG  LYS A   2      10.975  23.003   4.361  0.00  0.00    -0.000 C 
BRANCH  16  17
ATOM     17  CD  LYS A   2      12.546  23.222   4.450  0.00  0.00    -0.024 C 
BRANCH  17  18
ATOM     18  CE  LYS A   2      12.830  24.645   4.800  0.00  0.00    -0.086 C 
BRANCH  18  19
ATOM     19  NZ  LYS A   2      12.264  25.145   6.097  0.00  0.00    +0.380 N 
ATOM     20  HZ1 LYS A   2      12.645  24.579   6.881  0.00  0.00    -0.089 HD
ATOM     21  HZ2 LYS A   2      12.528  26.142   6.228  0.00  0.00    -0.089 HD
ATOM     22  HZ3 LYS A   2      11.228  25.059   6.078  0.00  0.00    -0.089 HD
ENDBRANCH  18  19
ENDBRANCH  17  18
ENDBRANCH  16  17
ENDBRANCH  15  16
ENDBRANCH  12  15
ENDBRANCH   3  12
TORSDOF 11
REMARK  Name = ../refined-set-2016/4oma/4oma_pocket.pdb
REMARK  229 active torsions:
REMARK  status: ('A' for Active; 'I' for Inactive)
REMARK    1  A    between atoms: _1  and  _3
REMARK    2  A    between atoms: _3  and  _4
REMARK    3  A    between atoms: _3  and  _6
REMARK    4  A    between atoms: _6  and  _7
REMARK    5  A    between atoms: _10  and  _12
REMARK    6  A    between atoms: _12  and  _13
REMARK    7  A    between atoms: _16  and  _18
REMARK    8  A    between atoms: _18  and  _19
REMARK    9  A    between atoms: _18  and  _21
REMARK   10  A    between atoms: _21  and  _22
REMARK   11  A    between atoms: _24  and  _26
REMARK   12  A    between atoms: _26  and  _27
REMARK   13  A    between atoms: _29  and  _31
REMARK   14  A    between atoms: _31  and  _32
REMARK   15  A    between atoms: _31  and  _34
REMARK   16  A    between atoms: _34  and  _35
REMARK   17  A    between atoms: _38  and  _40
REMARK   18  A    between atoms: _40  and  _41
REMARK   19  A    between atoms: _40  and  _43
REMARK   20  A    between atoms: _43  and  _44
REMARK   21  A    between atoms: _46  and  _48
REMARK   22  A    between atoms: _48  and  _49
REMARK   23  A    between atoms: _52  and  _54
REMARK   24  A    between atoms: _54  and  _55
REMARK   25  A    between atoms: _54  and  _57
REMARK   26  A    between atoms: _57  and  _58
REMARK   27  A    between atoms: _61  and  _63
REMARK   28  A    between atoms: _63  and  _64
REMARK   29  A    between atoms: _63  and  _66
REMARK   30  A    between atoms: _66  and  _67
REMARK   31  A    between atoms: _70  and  _72
REMARK   32  A    between atoms: _72  and  _73
REMARK   33  A    between atoms: _76  and  _78
REMARK   34  A    between atoms: _78  and  _79
REMARK   35  A    between atoms: _78  and  _81
REMARK   36  A    between atoms: _81  and  _82
REMARK   37  A    between atoms: _85  and  _87
REMARK   38  A    between atoms: _87  and  _88
REMARK   39  A    between atoms: _87  and  _90
REMARK   40  A    between atoms: _90  and  _91
REMARK   41  A    between atoms: _96  and  _97
REMARK   42  A    between atoms: _99  and  _101
REMARK   43  A    between atoms: _101  and  _102
REMARK   44  A    between atoms: _104  and  _106
REMARK   45  A    between atoms: _106  and  _107
REMARK   46  A    between atoms: _106  and  _109
REMARK   47  A    between atoms: _111  and  _113
REMARK   48  A    between atoms: _113  and  _114
REMARK   49  A    between atoms: _113  and  _116
REMARK   50  A    between atoms: _116  and  _117
REMARK   51  A    between atoms: _120  and  _122
REMARK   52  A    between atoms: _122  and  _123
REMARK   53  A    between atoms: _122  and  _125
REMARK   54  A    between atoms: _125  and  _126
REMARK   55  A    between atoms: _131  and  _132
REMARK   56  A    between atoms: _134  and  _136
REMARK   57  A    between atoms: _136  and  _137
REMARK   58  A    between atoms: _136  and  _139
REMARK   59  A    between atoms: _139  and  _140
REMARK   60  A    between atoms: _143  and  _145
REMARK   61  A    between atoms: _145  and  _146
REMARK   62  A    between atoms: _145  and  _148
REMARK   63  A    between atoms: _148  and  _149
REMARK   64  A    between atoms: _149  and  _150
REMARK   65  A    between atoms: _153  and  _155
REMARK   66  A    between atoms: _155  and  _156
REMARK   67  A    between atoms: _155  and  _158
REMARK   68  A    between atoms: _158  and  _159
REMARK   69  A    between atoms: _163  and  _164
REMARK   70  A    between atoms: _169  and  _171
REMARK   71  A    between atoms: _171  and  _172
REMARK   72  A    between atoms: _175  and  _177
REMARK   73  A    between atoms: _177  and  _178
REMARK   74  A    between atoms: _177  and  _180
REMARK   75  A    between atoms: _180  and  _181
REMARK   76  A    between atoms: _186  and  _188
REMARK   77  A    between atoms: _188  and  _189
REMARK   78  A    between atoms: _188  and  _191
REMARK   79  A    between atoms: _191  and  _192
REMARK   80  A    between atoms: _195  and  _197
REMARK   81  A    between atoms: _197  and  _198
REMARK   82  A    between atoms: _197  and  _200
REMARK   83  A    between atoms: _200  and  _201
REMARK   84  A    between atoms: _206  and  _208
REMARK   85  A    between atoms: _208  and  _209
REMARK   86  A    between atoms: _208  and  _211
REMARK   87  A    between atoms: _211  and  _212
REMARK   88  A    between atoms: _215  and  _217
REMARK   89  A    between atoms: _217  and  _218
REMARK   90  A    between atoms: _217  and  _220
REMARK   91  A    between atoms: _220  and  _221
REMARK   92  A    between atoms: _227  and  _229
REMARK   93  A    between atoms: _229  and  _230
REMARK   94  A    between atoms: _229  and  _232
REMARK   95  A    between atoms: _232  and  _233
REMARK   96  A    between atoms: _233  and  _234
REMARK   97  A    between atoms: _236  and  _238
REMARK   98  A    between atoms: _238  and  _239
REMARK   99  A    between atoms: _238  and  _241
REMARK  100  A    between atoms: _244  and  _246
REMARK  101  A    between atoms: _246  and  _247
REMARK  102  A    between atoms: _246  and  _249
REMARK  103  A    between atoms: _249  and  _250
REMARK  104  A    between atoms: _255  and  _257
REMARK  105  A    between atoms: _257  and  _258
REMARK  106  A    between atoms: _257  and  _260
REMARK  107  A    between atoms: _260  and  _261
REMARK  108  A    between atoms: _263  and  _265
REMARK  109  A    between atoms: _265  and  _266
REMARK  110  A    between atoms: _265  and  _268
REMARK  111  A    between atoms: _271  and  _273
REMARK  112  A    between atoms: _273  and  _274
REMARK  113  A    between atoms: _273  and  _276
REMARK  114  A    between atoms: _276  and  _277
REMARK  115  A    between atoms: _280  and  _282
REMARK  116  A    between atoms: _282  and  _283
REMARK  117  A    between atoms: _282  and  _285
REMARK  118  A    between atoms: _285  and  _286
REMARK  119  A    between atoms: _286  and  _287
REMARK  120  A    between atoms: _287  and  _288
REMARK  121  A    between atoms: _288  and  _289
REMARK  122  A    between atoms: _293  and  _295
REMARK  123  A    between atoms: _295  and  _296
REMARK  124  A    between atoms: _295  and  _298
REMARK  125  A    between atoms: _301  and  _303
REMARK  126  A    between atoms: _303  and  _304
REMARK  127  A    between atoms: _303  and  _306
REMARK  128  A    between atoms: _306  and  _307
REMARK  129  A    between atoms: _310  and  _312
REMARK  130  A    between atoms: _312  and  _313
REMARK  131  A    between atoms: _315  and  _317
REMARK  132  A    between atoms: _317  and  _318
REMARK  133  A    between atoms: _320  and  _322
REMARK  134  A    between atoms: _322  and  _323
REMARK  135  A    between atoms: _322  and  _325
REMARK  136  A    between atoms: _325  and  _326
REMARK  137  A    between atoms: _329  and  _331
REMARK  138  A    between atoms: _331  and  _332
REMARK  139  A    between atoms: _331  and  _334
REMARK  140  A    between atoms: _334  and  _335
REMARK  141  A    between atoms: _338  and  _340
REMARK  142  A    between atoms: _340  and  _341
REMARK  143  A    between atoms: _344  and  _346
REMARK  144  A    between atoms: _346  and  _347
REMARK  145  A    between atoms: _346  and  _349
REMARK  146  A    between atoms: _352  and  _354
REMARK  147  A    between atoms: _354  and  _355
REMARK  148  A    between atoms: _354  and  _357
REMARK  149  A    between atoms: _357  and  _358
REMARK  150  A    between atoms: _360  and  _362
REMARK  151  A    between atoms: _362  and  _363
REMARK  152  A    between atoms: _362  and  _365
REMARK  153  A    between atoms: _365  and  _366
REMARK  154  A    between atoms: _369  and  _371
REMARK  155  A    between atoms: _371  and  _372
REMARK  156  A    between atoms: _374  and  _376
REMARK  157  A    between atoms: _376  and  _377
REMARK  158  A    between atoms: _376  and  _379
REMARK  159  A    between atoms: _379  and  _380
REMARK  160  A    between atoms: _383  and  _385
REMARK  161  A    between atoms: _385  and  _386
REMARK  162  A    between atoms: _385  and  _388
REMARK  163  A    between atoms: _388  and  _389
REMARK  164  A    between atoms: _389  and  _390
REMARK  165  A    between atoms: _395  and  _397
REMARK  166  A    between atoms: _397  and  _398
REMARK  167  A    between atoms: _397  and  _400
REMARK  168  A    between atoms: _400  and  _401
REMARK  169  A    between atoms: _404  and  _406
REMARK  170  A    between atoms: _406  and  _407
REMARK  171  A    between atoms: _406  and  _409
REMARK  172  A    between atoms: _409  and  _410
REMARK  173  A    between atoms: _410  and  _411
REMARK  174  A    between atoms: _411  and  _412
REMARK  175  A    between atoms: _421  and  _423
REMARK  176  A    between atoms: _423  and  _424
REMARK  177  A    between atoms: _423  and  _426
REMARK  178  A    between atoms: _426  and  _427
REMARK  179  A    between atoms: _429  and  _431
REMARK  180  A    between atoms: _431  and  _432
REMARK  181  A    between atoms: _431  and  _434
REMARK  182  A    between atoms: _434  and  _435
REMARK  183  A    between atoms: _438  and  _440
REMARK  184  A    between atoms: _440  and  _441
REMARK  185  A    between atoms: _440  and  _443
REMARK  186  A    between atoms: _443  and  _444
REMARK  187  A    between atoms: _450  and  _452
REMARK  188  A    between atoms: _452  and  _453
REMARK  189  A    between atoms: _452  and  _455
REMARK  190  A    between atoms: _455  and  _456
REMARK  191  A    between atoms: _462  and  _464
REMARK  192  A    between atoms: _464  and  _465
REMARK  193  A    between atoms: _464  and  _467
REMARK  194  A    between atoms: _467  and  _468
REMARK  195  A    between atoms: _471  and  _473
REMARK  196  A    between atoms: _473  and  _474
REMARK  197  A    between atoms: _473  and  _476
REMARK  198  A    between atoms: _476  and  _477
REMARK  199  A    between atoms: _482  and  _483
REMARK  200  A    between atoms: _485  and  _487
REMARK  201  A    between atoms: _487  and  _488
REMARK  202  A    between atoms: _487  and  _490
REMARK  203  A    between atoms: _490  and  _491
REMARK  204  A    between atoms: _494  and  _496
REMARK  205  A    between atoms: _496  and  _497
REMARK  206  A    between atoms: _496  and  _499
REMARK  207  A    between atoms: _499  and  _500
REMARK  208  A    between atoms: _500  and  _501
REMARK  209  A    between atoms: _501  and  _502
REMARK  210  A    between atoms: _511  and  _513
REMARK  211  A    between atoms: _513  and  _514
REMARK  212  A    between atoms: _513  and  _516
REMARK  213  A    between atoms: _516  and  _517
REMARK  214  A    between atoms: _520  and  _522
REMARK  215  A    between atoms: _522  and  _523
REMARK  216  A    between atoms: _522  and  _525
REMARK  217  A    between atoms: _525  and  _526
REMARK  218  A    between atoms: _529  and  _531
REMARK  219  A    between atoms: _531  and  _532
REMARK  220  A    between atoms: _531  and  _534
REMARK  221  A    between atoms: _534  and  _535
REMARK  222  A    between atoms: _535  and  _536
REMARK  223  A    between atoms: _536  and  _537
REMARK  224  A    between atoms: _537  and  _538
REMARK  225  A    between atoms: _542  and  _544
REMARK  226  A    between atoms: _544  and  _545
REMARK  227  A    between atoms: _547  and  _549
REMARK  228  A    between atoms: _549  and  _550
REMARK  229  A    between atoms: _549  and  _552
REMARK                            x       y       z     vdW  Elec       q    Type
REMARK                         _______ _______ _______ _____ _____    ______ ____
ROOT
ATOM      1  CA  GLY A   1       3.452  21.826   2.704  0.00  0.00    +0.156 C 
ENDROOT
BRANCH   1   2
ATOM      2  N   GLY A   1       3.365  23.079   2.016  0.00  0.00    -0.238 NA
ATOM      3  H   GLY A   1       4.233  23.610   1.800  0.00  0.00    +0.142 HD
ENDBRANCH   1   2
BRANCH   1   4
ATOM      4  C   GLY A   1       3.012  20.632   1.854  0.00  0.00    +0.226 C 
ATOM      5  O   GLY A   1       2.800  19.519   2.398  0.00  0.00    -0.287 OA
ENDBRANCH   1   4
TORSDOF 2
REMARK  Name = ../refined-set-2016/4oma/4oma_pocket.pdb
REMARK  229 active torsions:
REMARK  status: ('A' for Active; 'I' for Inactive)
REMARK    1  A    between atoms: _1  and  _3
REMARK    2  A    between atoms: _3  and  _4
REMARK    3  A    between atoms: _3  and  _6
REMARK    4  A    between atoms: _6  and  _7
REMARK    5  A    between atoms: _10  and  _12
REMARK    6  A    between atoms: _12  and  _13
REMARK    7  A    between atoms: _16  and  _18
REMARK    8  A    between atoms: _18  and  _19
REMARK    9  A    between atoms: _18  and  _21
REMARK   10  A    between atoms: _21  and  _22
REMARK   11  A    between atoms: _24  and  _26
REMARK   12  A    between atoms: _26  and  _27
REMARK   13  A    between atoms: _29  and  _31
REMARK   14  A    between atoms: _31  and  _32
REMARK   15  A    between atoms: _31  and  _34
REMARK   16  A    between atoms: _34  and  _35
REMARK   17  A    between atoms: _38  and  _40
REMARK   18  A    between atoms: _40  and  _41
REMARK   19  A    between atoms: _40  and  _43
REMARK   20  A    between atoms: _43  and  _44
REMARK   21  A    between atoms: _46  and  _48
REMARK   22  A    between atoms: _48  and  _49
REMARK   23  A    between atoms: _52  and  _54
REMARK   24  A    between atoms: _54  and  _55
REMARK   25  A    between atoms: _54  and  _57
REMARK   26  A    between atoms: _57  and  _58
REMARK   27  A    between atoms: _61  and  _63
REMARK   28  A    between atoms: _63  and  _64
REMARK   29  A    between atoms: _63  and  _66
REMARK   30  A    between atoms: _66  and  _67
REMARK   31  A    between atoms: _70  and  _72
REMARK   32  A    between atoms: _72  and  _73
REMARK   33  A    between atoms: _76  and  _78
REMARK   34  A    between atoms: _78  and  _79
REMARK   35  A    between atoms: _78  and  _81
REMARK   36  A    between atoms: _81  and  _82
REMARK   37  A    between atoms: _85  and  _87
REMARK   38  A    between atoms: _87  and  _88
REMARK   39  A    between atoms: _87  and  _90
REMARK   40  A    between atoms: _90  and  _91
REMARK   41  A    between atoms: _96  and  _97
REMARK   42  A    between atoms: _99  and  _101
REMARK   43  A    between atoms: _101  and  _102
REMARK   44  A    between atoms: _104  and  _106
REMARK   45  A    between atoms: _106  and  _107
REMARK   46  A    between atoms: _106  and  _109
REMARK   47  A    between atoms: _111  and  _113
REMARK   48  A    between atoms: _113  and  _114
REMARK   49  A    between atoms: _113  and  _116
REMARK   50  A    between atoms: _116  and  _117
REMARK   51  A    between atoms: _120  and  _122
REMARK   52  A    between atoms: _122  and  _123
REMARK   53  A    between atoms: _122  and  _125
REMARK   54  A    between atoms: _125  and  _126
REMARK   55  A    between atoms: _131  and  _132
REMARK   56  A    between atoms: _134  and  _136
REMARK   57  A    between atoms: _136  and  _137
REMARK   58  A    between atoms: _136  and  _139
REMARK   59  A    between atoms: _139  and  _140
REMARK   60  A    between atoms: _143  and  _145
REMARK   61  A    between atoms: _145  and  _146
REMARK   62  A    between atoms: _145  and  _148
REMARK   63  A    between atoms: _148  and  _149
REMARK   64  A    between atoms: _149  and  _150
REMARK   65  A    between atoms: _153  and  _155
REMARK   66  A    between atoms: _155  and  _156
REMARK   67  A    between atoms: _155  and  _158
REMARK   68  A    between atoms: _158  and  _159
REMARK   69  A    between atoms: _163  and  _164
REMARK   70  A    between atoms: _169  and  _171
REMARK   71  A    between atoms: _171  and  _172
REMARK   72  A    between atoms: _175  and  _177
REMARK   73  A    between atoms: _177  and  _178
REMARK   74  A    between atoms: _177  and  _180
REMARK   75  A    between atoms: _180  and  _181
REMARK   76  A    between atoms: _186  and  _188
REMARK   77  A    between atoms: _188  and  _189
REMARK   78  A    between atoms: _188  and  _191
REMARK   79  A    between atoms: _191  and  _192
REMARK   80  A    between atoms: _195  and  _197
REMARK   81  A    between atoms: _197  and  _198
REMARK   82  A    between atoms: _197  and  _200
REMARK   83  A    between atoms: _200  and  _201
REMARK   84  A    between atoms: _206  and  _208
REMARK   85  A    between atoms: _208  and  _209
REMARK   86  A    between atoms: _208  and  _211
REMARK   87  A    between atoms: _211  and  _212
REMARK   88  A    between atoms: _215  and  _217
REMARK   89  A    between atoms: _217  and  _218
REMARK   90  A    between atoms: _217  and  _220
REMARK   91  A    between atoms: _220  and  _221
REMARK   92  A    between atoms: _227  and  _229
REMARK   93  A    between atoms: _229  and  _230
REMARK   94  A    between atoms: _229  and  _232
REMARK   95  A    between atoms: _232  and  _233
REMARK   96  A    between atoms: _233  and  _234
REMARK   97  A    between atoms: _236  and  _238
REMARK   98  A    between atoms: _238  and  _239
REMARK   99  A    between atoms: _238  and  _241
REMARK  100  A    between atoms: _244  and  _246
REMARK  101  A    between atoms: _246  and  _247
REMARK  102  A    between atoms: _246  and  _249
REMARK  103  A    between atoms: _249  and  _250
REMARK  104  A    between atoms: _255  and  _257
REMARK  105  A    between atoms: _257  and  _258
REMARK  106  A    between atoms: _257  and  _260
REMARK  107  A    between atoms: _260  and  _261
REMARK  108  A    between atoms: _263  and  _265
REMARK  109  A    between atoms: _265  and  _266
REMARK  110  A    between atoms: _265  and  _268
REMARK  111  A    between atoms: _271  and  _273
REMARK  112  A    between atoms: _273  and  _274
REMARK  113  A    between atoms: _273  and  _276
REMARK  114  A    between atoms: _276  and  _277
REMARK  115  A    between atoms: _280  and  _282
REMARK  116  A    between atoms: _282  and  _283
REMARK  117  A    between atoms: _282  and  _285
REMARK  118  A    between atoms: _285  and  _286
REMARK  119  A    between atoms: _286  and  _287
REMARK  120  A    between atoms: _287  and  _288
REMARK  121  A    between atoms: _288  and  _289
REMARK  122  A    between atoms: _293  and  _295
REMARK  123  A    between atoms: _295  and  _296
REMARK  124  A    between atoms: _295  and  _298
REMARK  125  A    between atoms: _301  and  _303
REMARK  126  A    between atoms: _303  and  _304
REMARK  127  A    between atoms: _303  and  _306
REMARK  128  A    between atoms: _306  and  _307
REMARK  129  A    between atoms: _310  and  _312
REMARK  130  A    between atoms: _312  and  _313
REMARK  131  A    between atoms: _315  and  _317
REMARK  132  A    between atoms: _317  and  _318
REMARK  133  A    between atoms: _320  and  _322
REMARK  134  A    between atoms: _322  and  _323
REMARK  135  A    between atoms: _322  and  _325
REMARK  136  A    between atoms: _325  and  _326
REMARK  137  A    between atoms: _329  and  _331
REMARK  138  A    between atoms: _331  and  _332
REMARK  139  A    between atoms: _331  and  _334
REMARK  140  A    between atoms: _334  and  _335
REMARK  141  A    between atoms: _338  and  _340
REMARK  142  A    between atoms: _340  and  _341
REMARK  143  A    between atoms: _344  and  _346
REMARK  144  A    between atoms: _346  and  _347
REMARK  145  A    between atoms: _346  and  _349
REMARK  146  A    between atoms: _352  and  _354
REMARK  147  A    between atoms: _354  and  _355
REMARK  148  A    between atoms: _354  and  _357
REMARK  149  A    between atoms: _357  and  _358
REMARK  150  A    between atoms: _360  and  _362
REMARK  151  A    between atoms: _362  and  _363
REMARK  152  A    between atoms: _362  and  _365
REMARK  153  A    between atoms: _365  and  _366
REMARK  154  A    between atoms: _369  and  _371
REMARK  155  A    between atoms: _371  and  _372
REMARK  156  A    between atoms: _374  and  _376
REMARK  157  A    between atoms: _376  and  _377
REMARK  158  A    between atoms: _376  and  _379
REMARK  159  A    between atoms: _379  and  _380
REMARK  160  A    between atoms: _383  and  _385
REMARK  161  A    between atoms: _385  and  _386
REMARK  162  A    between atoms: _385  and  _388
REMARK  163  A    between atoms: _388  and  _389
REMARK  164  A    between atoms: _389  and  _390
REMARK  165  A    between atoms: _395  and  _397
REMARK  166  A    between atoms: _397  and  _398
REMARK  167  A    between atoms: _397  and  _400
REMARK  168  A    between atoms: _400  and  _401
REMARK  169  A    between atoms: _404  and  _406
REMARK  170  A    between atoms: _406  and  _407
REMARK  171  A    between atoms: _406  and  _409
REMARK  172  A    between atoms: _409  and  _410
REMARK  173  A    between atoms: _410  and  _411
REMARK  174  A    between atoms: _411  and  _412
REMARK  175  A    between atoms: _421  and  _423
REMARK  176  A    between atoms: _423  and  _424
REMARK  177  A    between atoms: _423  and  _426
REMARK  178  A    between atoms: _426  and  _427
REMARK  179  A    between atoms: _429  and  _431
REMARK  180  A    between atoms: _431  and  _432
REMARK  181  A    between atoms: _431  and  _434
REMARK  182  A    between atoms: _434  and  _435
REMARK  183  A    between atoms: _438  and  _440
REMARK  184  A    between atoms: _440  and  _441
REMARK  185  A    between atoms: _440  and  _443
REMARK  186  A    between atoms: _443  and  _444
REMARK  187  A    between atoms: _450  and  _452
REMARK  188  A    between atoms: _452  and  _453
REMARK  189  A    between atoms: _452  and  _455
REMARK  190  A    between atoms: _455  and  _456
REMARK  191  A    between atoms: _462  and  _464
REMARK  192  A    between atoms: _464  and  _465
REMARK  193  A    between atoms: _464  and  _467
REMARK  194  A    between atoms: _467  and  _468
REMARK  195  A    between atoms: _471  and  _473
REMARK  196  A    between atoms: _473  and  _474
REMARK  197  A    between atoms: _473  and  _476
REMARK  198  A    between atoms: _476  and  _477
REMARK  199  A    between atoms: _482  and  _483
REMARK  200  A    between atoms: _485  and  _487
REMARK  201  A    between atoms: _487  and  _488
REMARK  202  A    between atoms: _487  and  _490
REMARK  203  A    between atoms: _490  and  _491
REMARK  204  A    between atoms: _494  and  _496
REMARK  205  A    between atoms: _496  and  _497
REMARK  206  A    between atoms: _496  and  _499
REMARK  207  A    between atoms: _499  and  _500
REMARK  208  A    between atoms: _500  and  _501
REMARK  209  A    between atoms: _501  and  _502
REMARK  210  A    between atoms: _511  and  _513
REMARK  211  A    between atoms: _513  and  _514
REMARK  212  A    between atoms: _513  and  _516
REMARK  213  A    between atoms: _516  and  _517
REMARK  214  A    between atoms: _520  and  _522
REMARK  215  A    between atoms: _522  and  _523
REMARK  216  A    between atoms: _522  and  _525
REMARK  217  A    between atoms: _525  and  _526
REMARK  218  A    between atoms: _529  and  _531
REMARK  219  A    between atoms: _531  and  _532
REMARK  220  A    between atoms: _531  and  _534
REMARK  221  A    between atoms: _534  and  _535
REMARK  222  A    between atoms: _535  and  _536
REMARK  223  A    between atoms: _536  and  _537
REMARK  224  A    between atoms: _537  and  _538
REMARK  225  A    between atoms: _542  and  _544
REMARK  226  A    between atoms: _544  and  _545
REMARK  227  A    between atoms: _547  and  _549
REMARK  228  A    between atoms: _549  and  _550
REMARK  229  A    between atoms: _549  and  _552
REMARK                            x       y       z     vdW  Elec       q    Type
REMARK                         _______ _______ _______ _____ _____    ______ ____
ROOT
ATOM      1  CA  CYS A   1       4.586  16.913  -0.333  0.00  0.00    +0.145 C 
ENDROOT
BRANCH   1   2
ATOM      2  N   CYS A   1       3.710  17.985   0.061  0.00  0.00    -0.238 NA
ATOM      3  H   CYS A   1       3.510  18.146   1.069  0.00  0.00    +0.142 HD
ENDBRANCH   1   2
BRANCH   1   4
ATOM      4  CB  CYS A   1       5.623  16.586   0.764  0.00  0.00    +0.094 C 
ATOM      5  SG  CYS A   1       4.964  16.383   2.396  0.00  0.00    -0.080 S 
ENDBRANCH   1   4
BRANCH   1   6
ATOM      6  C   CYS A   1       3.743  15.725  -0.744  0.00  0.00    +0.225 C 
ATOM      7  O   CYS A   1       2.608  15.564  -0.295  0.00  0.00    -0.287 OA
ENDBRANCH   1   6
TORSDOF 3
REMARK  Name = ../refined-set-2016/4oma/4oma_pocket.pdb
REMARK  229 active torsions:
REMARK  status: ('A' for Active; 'I' for Inactive)
REMARK    1  A    between atoms: _1  and  _3
REMARK    2  A    between atoms: _3  and  _4
REMARK    3  A    between atoms: _3  and  _6
REMARK    4  A    between atoms: _6  and  _7
REMARK    5  A    between atoms: _10  and  _12
REMARK    6  A    between atoms: _12  and  _13
REMARK    7  A    between atoms: _16  and  _18
REMARK    8  A    between atoms: _18  and  _19
REMARK    9  A    between atoms: _18  and  _21
REMARK   10  A    between atoms: _21  and  _22
REMARK   11  A    between atoms: _24  and  _26
REMARK   12  A    between atoms: _26  and  _27
REMARK   13  A    between atoms: _29  and  _31
REMARK   14  A    between atoms: _31  and  _32
REMARK   15  A    between atoms: _31  and  _34
REMARK   16  A    between atoms: _34  and  _35
REMARK   17  A    between atoms: _38  and  _40
REMARK   18  A    between atoms: _40  and  _41
REMARK   19  A    between atoms: _40  and  _43
REMARK   20  A    between atoms: _43  and  _44
REMARK   21  A    between atoms: _46  and  _48
REMARK   22  A    between atoms: _48  and  _49
REMARK   23  A    between atoms: _52  and  _54
REMARK   24  A    between atoms: _54  and  _55
REMARK   25  A    between atoms: _54  and  _57
REMARK   26  A    between atoms: _57  and  _58
REMARK   27  A    between atoms: _61  and  _63
REMARK   28  A    between atoms: _63  and  _64
REMARK   29  A    between atoms: _63  and  _66
REMARK   30  A    between atoms: _66  and  _67
REMARK   31  A    between atoms: _70  and  _72
REMARK   32  A    between atoms: _72  and  _73
REMARK   33  A    between atoms: _76  and  _78
REMARK   34  A    between atoms: _78  and  _79
REMARK   35  A    between atoms: _78  and  _81
REMARK   36  A    between atoms: _81  and  _82
REMARK   37  A    between atoms: _85  and  _87
REMARK   38  A    between atoms: _87  and  _88
REMARK   39  A    between atoms: _87  and  _90
REMARK   40  A    between atoms: _90  and  _91
REMARK   41  A    between atoms: _96  and  _97
REMARK   42  A    between atoms: _99  and  _101
REMARK   43  A    between atoms: _101  and  _102
REMARK   44  A    between atoms: _104  and  _106
REMARK   45  A    between atoms: _106  and  _107
REMARK   46  A    between atoms: _106  and  _109
REMARK   47  A    between atoms: _111  and  _113
REMARK   48  A    between atoms: _113  and  _114
REMARK   49  A    between atoms: _113  and  _116
REMARK   50  A    between atoms: _116  and  _117
REMARK   51  A    between atoms: _120  and  _122
REMARK   52  A    between atoms: _122  and  _123
REMARK   53  A    between atoms: _122  and  _125
REMARK   54  A    between atoms: _125  and  _126
REMARK   55  A    between atoms: _131  and  _132
REMARK   56  A    between atoms: _134  and  _136
REMARK   57  A    between atoms: _136  and  _137
REMARK   58  A    between atoms: _136  and  _139
REMARK   59  A    between atoms: _139  and  _140
REMARK   60  A    between atoms: _143  and  _145
REMARK   61  A    between atoms: _145  and  _146
REMARK   62  A    between atoms: _145  and  _148
REMARK   63  A    between atoms: _148  and  _149
REMARK   64  A    between atoms: _149  and  _150
REMARK   65  A    between atoms: _153  and  _155
REMARK   66  A    between atoms: _155  and  _156
REMARK   67  A    between atoms: _155  and  _158
REMARK   68  A    between atoms: _158  and  _159
REMARK   69  A    between atoms: _163  and  _164
REMARK   70  A    between atoms: _169  and  _171
REMARK   71  A    between atoms: _171  and  _172
REMARK   72  A    between atoms: _175  and  _177
REMARK   73  A    between atoms: _177  and  _178
REMARK   74  A    between atoms: _177  and  _180
REMARK   75  A    between atoms: _180  and  _181
REMARK   76  A    between atoms: _186  and  _188
REMARK   77  A    between atoms: _188  and  _189
REMARK   78  A    between atoms: _188  and  _191
REMARK   79  A    between atoms: _191  and  _192
REMARK   80  A    between atoms: _195  and  _197
REMARK   81  A    between atoms: _197  and  _198
REMARK   82  A    between atoms: _197  and  _200
REMARK   83  A    between atoms: _200  and  _201
REMARK   84  A    between atoms: _206  and  _208
REMARK   85  A    between atoms: _208  and  _209
REMARK   86  A    between atoms: _208  and  _211
REMARK   87  A    between atoms: _211  and  _212
REMARK   88  A    between atoms: _215  and  _217
REMARK   89  A    between atoms: _217  and  _218
REMARK   90  A    between atoms: _217  and  _220
REMARK   91  A    between atoms: _220  and  _221
REMARK   92  A    between atoms: _227  and  _229
REMARK   93  A    between atoms: _229  and  _230
REMARK   94  A    between atoms: _229  and  _232
REMARK   95  A    between atoms: _232  and  _233
REMARK   96  A    between atoms: _233  and  _234
REMARK   97  A    between atoms: _236  and  _238
REMARK   98  A    between atoms: _238  and  _239
REMARK   99  A    between atoms: _238  and  _241
REMARK  100  A    between atoms: _244  and  _246
REMARK  101  A    between atoms: _246  and  _247
REMARK  102  A    between atoms: _246  and  _249
REMARK  103  A    between atoms: _249  and  _250
REMARK  104  A    between atoms: _255  and  _257
REMARK  105  A    between atoms: _257  and  _258
REMARK  106  A    between atoms: _257  and  _260
REMARK  107  A    between atoms: _260  and  _261
REMARK  108  A    between atoms: _263  and  _265
REMARK  109  A    between atoms: _265  and  _266
REMARK  110  A    between atoms: _265  and  _268
REMARK  111  A    between atoms: _271  and  _273
REMARK  112  A    between atoms: _273  and  _274
REMARK  113  A    between atoms: _273  and  _276
REMARK  114  A    between atoms: _276  and  _277
REMARK  115  A    between atoms: _280  and  _282
REMARK  116  A    between atoms: _282  and  _283
REMARK  117  A    between atoms: _282  and  _285
REMARK  118  A    between atoms: _285  and  _286
REMARK  119  A    between atoms: _286  and  _287
REMARK  120  A    between atoms: _287  and  _288
REMARK  121  A    between atoms: _288  and  _289
REMARK  122  A    between atoms: _293  and  _295
REMARK  123  A    between atoms: _295  and  _296
REMARK  124  A    between atoms: _295  and  _298
REMARK  125  A    between atoms: _301  and  _303
REMARK  126  A    between atoms: _303  and  _304
REMARK  127  A    between atoms: _303  and  _306
REMARK  128  A    between atoms: _306  and  _307
REMARK  129  A    between atoms: _310  and  _312
REMARK  130  A    between atoms: _312  and  _313
REMARK  131  A    between atoms: _315  and  _317
REMARK  132  A    between atoms: _317  and  _318
REMARK  133  A    between atoms: _320  and  _322
REMARK  134  A    between atoms: _322  and  _323
REMARK  135  A    between atoms: _322  and  _325
REMARK  136  A    between atoms: _325  and  _326
REMARK  137  A    between atoms: _329  and  _331
REMARK  138  A    between atoms: _331  and  _332
REMARK  139  A    between atoms: _331  and  _334
REMARK  140  A    between atoms: _334  and  _335
REMARK  141  A    between atoms: _338  and  _340
REMARK  142  A    between atoms: _340  and  _341
REMARK  143  A    between atoms: _344  and  _346
REMARK  144  A    between atoms: _346  and  _347
REMARK  145  A    between atoms: _346  and  _349
REMARK  146  A    between atoms: _352  and  _354
REMARK  147  A    between atoms: _354  and  _355
REMARK  148  A    between atoms: _354  and  _357
REMARK  149  A    between atoms: _357  and  _358
REMARK  150  A    between atoms: _360  and  _362
REMARK  151  A    between atoms: _362  and  _363
REMARK  152  A    between atoms: _362  and  _365
REMARK  153  A    between atoms: _365  and  _366
REMARK  154  A    between atoms: _369  and  _371
REMARK  155  A    between atoms: _371  and  _372
REMARK  156  A    between atoms: _374  and  _376
REMARK  157  A    between atoms: _376  and  _377
REMARK  158  A    between atoms: _376  and  _379
REMARK  159  A    between atoms: _379  and  _380
REMARK  160  A    between atoms: _383  and  _385
REMARK  161  A    between atoms: _385  and  _386
REMARK  162  A    between atoms: _385  and  _388
REMARK  163  A    between atoms: _388  and  _389
REMARK  164  A    between atoms: _389  and  _390
REMARK  165  A    between atoms: _395  and  _397
REMARK  166  A    between atoms: _397  and  _398
REMARK  167  A    between atoms: _397  and  _400
REMARK  168  A    between atoms: _400  and  _401
REMARK  169  A    between atoms: _404  and  _406
REMARK  170  A    between atoms: _406  and  _407
REMARK  171  A    between atoms: _406  and  _409
REMARK  172  A    between atoms: _409  and  _410
REMARK  173  A    between atoms: _410  and  _411
REMARK  174  A    between atoms: _411  and  _412
REMARK  175  A    between atoms: _421  and  _423
REMARK  176  A    between atoms: _423  and  _424
REMARK  177  A    between atoms: _423  and  _426
REMARK  178  A    between atoms: _426  and  _427
REMARK  179  A    between atoms: _429  and  _431
REMARK  180  A    between atoms: _431  and  _432
REMARK  181  A    between atoms: _431  and  _434
REMARK  182  A    between atoms: _434  and  _435
REMARK  183  A    between atoms: _438  and  _440
REMARK  184  A    between atoms: _440  and  _441
REMARK  185  A    between atoms: _440  and  _443
REMARK  186  A    between atoms: _443  and  _444
REMARK  187  A    between atoms: _450  and  _452
REMARK  188  A    between atoms: _452  and  _453
REMARK  189  A    between atoms: _452  and  _455
REMARK  190  A    between atoms: _455  and  _456
REMARK  191  A    between atoms: _462  and  _464
REMARK  192  A    between atoms: _464  and  _465
REMARK  193  A    between atoms: _464  and  _467
REMARK  194  A    between atoms: _467  and  _468
REMARK  195  A    between atoms: _471  and  _473
REMARK  196  A    between atoms: _473  and  _474
REMARK  197  A    between atoms: _473  and  _476
REMARK  198  A    between atoms: _476  and  _477
REMARK  199  A    between atoms: _482  and  _483
REMARK  200  A    between atoms: _485  and  _487
REMARK  201  A    between atoms: _487  and  _488
REMARK  202  A    between atoms: _487  and  _490
REMARK  203  A    between atoms: _490  and  _491
REMARK  204  A    between atoms: _494  and  _496
REMARK  205  A    between atoms: _496  and  _497
REMARK  206  A    between atoms: _496  and  _499
REMARK  207  A    between atoms: _499  and  _500
REMARK  208  A    between atoms: _500  and  _501
REMARK  209  A    between atoms: _501  and  _502
REMARK  210  A    between atoms: _511  and  _513
REMARK  211  A    between atoms: _513  and  _514
REMARK  212  A    between atoms: _513  and  _516
REMARK  213  A    between atoms: _516  and  _517
REMARK  214  A    between atoms: _520  and  _522
REMARK  215  A    between atoms: _522  and  _523
REMARK  216  A    between atoms: _522  and  _525
REMARK  217  A    between atoms: _525  and  _526
REMARK  218  A    between atoms: _529  and  _531
REMARK  219  A    between atoms: _531  and  _532
REMARK  220  A    between atoms: _531  and  _534
REMARK  221  A    between atoms: _534  and  _535
REMARK  222  A    between atoms: _535  and  _536
REMARK  223  A    between atoms: _536  and  _537
REMARK  224  A    between atoms: _537  and  _538
REMARK  225  A    between atoms: _542  and  _544
REMARK  226  A    between atoms: _544  and  _545
REMARK  227  A    between atoms: _547  and  _549
REMARK  228  A    between atoms: _549  and  _550
REMARK  229  A    between atoms: _549  and  _552
REMARK                            x       y       z     vdW  Elec       q    Type
REMARK                         _______ _______ _______ _____ _____    ______ ____
ROOT
ATOM      1  O   HOH     1       4.609   9.064  10.861  0.00  0.00    +0.000 OA
ENDROOT
TORSDOF 0
REMARK  Name = ../refined-set-2016/4oma/4oma_pocket.pdb
REMARK  229 active torsions:
REMARK  status: ('A' for Active; 'I' for Inactive)
REMARK    1  A    between atoms: _1  and  _3
REMARK    2  A    between atoms: _3  and  _4
REMARK    3  A    between atoms: _3  and  _6
REMARK    4  A    between atoms: _6  and  _7
REMARK    5  A    between atoms: _10  and  _12
REMARK    6  A    between atoms: _12  and  _13
REMARK    7  A    between atoms: _16  and  _18
REMARK    8  A    between atoms: _18  and  _19
REMARK    9  A    between atoms: _18  and  _21
REMARK   10  A    between atoms: _21  and  _22
REMARK   11  A    between atoms: _24  and  _26
REMARK   12  A    between atoms: _26  and  _27
REMARK   13  A    between atoms: _29  and  _31
REMARK   14  A    between atoms: _31  and  _32
REMARK   15  A    between atoms: _31  and  _34
REMARK   16  A    between atoms: _34  and  _35
REMARK   17  A    between atoms: _38  and  _40
REMARK   18  A    between atoms: _40  and  _41
REMARK   19  A    between atoms: _40  and  _43
REMARK   20  A    between atoms: _43  and  _44
REMARK   21  A    between atoms: _46  and  _48
REMARK   22  A    between atoms: _48  and  _49
REMARK   23  A    between atoms: _52  and  _54
REMARK   24  A    between atoms: _54  and  _55
REMARK   25  A    between atoms: _54  and  _57
REMARK   26  A    between atoms: _57  and  _58
REMARK   27  A    between atoms: _61  and  _63
REMARK   28  A    between atoms: _63  and  _64
REMARK   29  A    between atoms: _63  and  _66
REMARK   30  A    between atoms: _66  and  _67
REMARK   31  A    between atoms: _70  and  _72
REMARK   32  A    between atoms: _72  and  _73
REMARK   33  A    between atoms: _76  and  _78
REMARK   34  A    between atoms: _78  and  _79
REMARK   35  A    between atoms: _78  and  _81
REMARK   36  A    between atoms: _81  and  _82
REMARK   37  A    between atoms: _85  and  _87
REMARK   38  A    between atoms: _87  and  _88
REMARK   39  A    between atoms: _87  and  _90
REMARK   40  A    between atoms: _90  and  _91
REMARK   41  A    between atoms: _96  and  _97
REMARK   42  A    between atoms: _99  and  _101
REMARK   43  A    between atoms: _101  and  _102
REMARK   44  A    between atoms: _104  and  _106
REMARK   45  A    between atoms: _106  and  _107
REMARK   46  A    between atoms: _106  and  _109
REMARK   47  A    between atoms: _111  and  _113
REMARK   48  A    between atoms: _113  and  _114
REMARK   49  A    between atoms: _113  and  _116
REMARK   50  A    between atoms: _116  and  _117
REMARK   51  A    between atoms: _120  and  _122
REMARK   52  A    between atoms: _122  and  _123
REMARK   53  A    between atoms: _122  and  _125
REMARK   54  A    between atoms: _125  and  _126
REMARK   55  A    between atoms: _131  and  _132
REMARK   56  A    between atoms: _134  and  _136
REMARK   57  A    between atoms: _136  and  _137
REMARK   58  A    between atoms: _136  and  _139
REMARK   59  A    between atoms: _139  and  _140
REMARK   60  A    between atoms: _143  and  _145
REMARK   61  A    between atoms: _145  and  _146
REMARK   62  A    between atoms: _145  and  _148
REMARK   63  A    between atoms: _148  and  _149
REMARK   64  A    between atoms: _149  and  _150
REMARK   65  A    between atoms: _153  and  _155
REMARK   66  A    between atoms: _155  and  _156
REMARK   67  A    between atoms: _155  and  _158
REMARK   68  A    between atoms: _158  and  _159
REMARK   69  A    between atoms: _163  and  _164
REMARK   70  A    between atoms: _169  and  _171
REMARK   71  A    between atoms: _171  and  _172
REMARK   72  A    between atoms: _175  and  _177
REMARK   73  A    between atoms: _177  and  _178
REMARK   74  A    between atoms: _177  and  _180
REMARK   75  A    between atoms: _180  and  _181
REMARK   76  A    between atoms: _186  and  _188
REMARK   77  A    between atoms: _188  and  _189
REMARK   78  A    between atoms: _188  and  _191
REMARK   79  A    between atoms: _191  and  _192
REMARK   80  A    between atoms: _195  and  _197
REMARK   81  A    between atoms: _197  and  _198
REMARK   82  A    between atoms: _197  and  _200
REMARK   83  A    between atoms: _200  and  _201
REMARK   84  A    between atoms: _206  and  _208
REMARK   85  A    between atoms: _208  and  _209
REMARK   86  A    between atoms: _208  and  _211
REMARK   87  A    between atoms: _211  and  _212
REMARK   88  A    between atoms: _215  and  _217
REMARK   89  A    between atoms: _217  and  _218
REMARK   90  A    between atoms: _217  and  _220
REMARK   91  A    between atoms: _220  and  _221
REMARK   92  A    between atoms: _227  and  _229
REMARK   93  A    between atoms: _229  and  _230
REMARK   94  A    between atoms: _229  and  _232
REMARK   95  A    between atoms: _232  and  _233
REMARK   96  A    between atoms: _233  and  _234
REMARK   97  A    between atoms: _236  and  _238
REMARK   98  A    between atoms: _238  and  _239
REMARK   99  A    between atoms: _238  and  _241
REMARK  100  A    between atoms: _244  and  _246
REMARK  101  A    between atoms: _246  and  _247
REMARK  102  A    between atoms: _246  and  _249
REMARK  103  A    between atoms: _249  and  _250
REMARK  104  A    between atoms: _255  and  _257
REMARK  105  A    between atoms: _257  and  _258
REMARK  106  A    between atoms: _257  and  _260
REMARK  107  A    between atoms: _260  and  _261
REMARK  108  A    between atoms: _263  and  _265
REMARK  109  A    between atoms: _265  and  _266
REMARK  110  A    between atoms: _265  and  _268
REMARK  111  A    between atoms: _271  and  _273
REMARK  112  A    between atoms: _273  and  _274
REMARK  113  A    between atoms: _273  and  _276
REMARK  114  A    between atoms: _276  and  _277
REMARK  115  A    between atoms: _280  and  _282
REMARK  116  A    between atoms: _282  and  _283
REMARK  117  A    between atoms: _282  and  _285
REMARK  118  A    between atoms: _285  and  _286
REMARK  119  A    between atoms: _286  and  _287
REMARK  120  A    between atoms: _287  and  _288
REMARK  121  A    between atoms: _288  and  _289
REMARK  122  A    between atoms: _293  and  _295
REMARK  123  A    between atoms: _295  and  _296
REMARK  124  A    between atoms: _295  and  _298
REMARK  125  A    between atoms: _301  and  _303
REMARK  126  A    between atoms: _303  and  _304
REMARK  127  A    between atoms: _303  and  _306
REMARK  128  A    between atoms: _306  and  _307
REMARK  129  A    between atoms: _310  and  _312
REMARK  130  A    between atoms: _312  and  _313
REMARK  131  A    between atoms: _315  and  _317
REMARK  132  A    between atoms: _317  and  _318
REMARK  133  A    between atoms: _320  and  _322
REMARK  134  A    between atoms: _322  and  _323
REMARK  135  A    between atoms: _322  and  _325
REMARK  136  A    between atoms: _325  and  _326
REMARK  137  A    between atoms: _329  and  _331
REMARK  138  A    between atoms: _331  and  _332
REMARK  139  A    between atoms: _331  and  _334
REMARK  140  A    between atoms: _334  and  _335
REMARK  141  A    between atoms: _338  and  _340
REMARK  142  A    between atoms: _340  and  _341
REMARK  143  A    between atoms: _344  and  _346
REMARK  144  A    between atoms: _346  and  _347
REMARK  145  A    between atoms: _346  and  _349
REMARK  146  A    between atoms: _352  and  _354
REMARK  147  A    between atoms: _354  and  _355
REMARK  148  A    between atoms: _354  and  _357
REMARK  149  A    between atoms: _357  and  _358
REMARK  150  A    between atoms: _360  and  _362
REMARK  151  A    between atoms: _362  and  _363
REMARK  152  A    between atoms: _362  and  _365
REMARK  153  A    between atoms: _365  and  _366
REMARK  154  A    between atoms: _369  and  _371
REMARK  155  A    between atoms: _371  and  _372
REMARK  156  A    between atoms: _374  and  _376
REMARK  157  A    between atoms: _376  and  _377
REMARK  158  A    between atoms: _376  and  _379
REMARK  159  A    between atoms: _379  and  _380
REMARK  160  A    between atoms: _383  and  _385
REMARK  161  A    between atoms: _385  and  _386
REMARK  162  A    between atoms: _385  and  _388
REMARK  163  A    between atoms: _388  and  _389
REMARK  164  A    between atoms: _389  and  _390
REMARK  165  A    between atoms: _395  and  _397
REMARK  166  A    between atoms: _397  and  _398
REMARK  167  A    between atoms: _397  and  _400
REMARK  168  A    between atoms: _400  and  _401
REMARK  169  A    between atoms: _404  and  _406
REMARK  170  A    between atoms: _406  and  _407
REMARK  171  A    between atoms: _406  and  _409
REMARK  172  A    between atoms: _409  and  _410
REMARK  173  A    between atoms: _410  and  _411
REMARK  174  A    between atoms: _411  and  _412
REMARK  175  A    between atoms: _421  and  _423
REMARK  176  A    between atoms: _423  and  _424
REMARK  177  A    between atoms: _423  and  _426
REMARK  178  A    between atoms: _426  and  _427
REMARK  179  A    between atoms: _429  and  _431
REMARK  180  A    between atoms: _431  and  _432
REMARK  181  A    between atoms: _431  and  _434
REMARK  182  A    between atoms: _434  and  _435
REMARK  183  A    between atoms: _438  and  _440
REMARK  184  A    between atoms: _440  and  _441
REMARK  185  A    between atoms: _440  and  _443
REMARK  186  A    between atoms: _443  and  _444
REMARK  187  A    between atoms: _450  and  _452
REMARK  188  A    between atoms: _452  and  _453
REMARK  189  A    between atoms: _452  and  _455
REMARK  190  A    between atoms: _455  and  _456
REMARK  191  A    between atoms: _462  and  _464
REMARK  192  A    between atoms: _464  and  _465
REMARK  193  A    between atoms: _464  and  _467
REMARK  194  A    between atoms: _467  and  _468
REMARK  195  A    between atoms: _471  and  _473
REMARK  196  A    between atoms: _473  and  _474
REMARK  197  A    between atoms: _473  and  _476
REMARK  198  A    between atoms: _476  and  _477
REMARK  199  A    between atoms: _482  and  _483
REMARK  200  A    between atoms: _485  and  _487
REMARK  201  A    between atoms: _487  and  _488
REMARK  202  A    between atoms: _487  and  _490
REMARK  203  A    between atoms: _490  and  _491
REMARK  204  A    between atoms: _494  and  _496
REMARK  205  A    between atoms: _496  and  _497
REMARK  206  A    between atoms: _496  and  _499
REMARK  207  A    between atoms: _499  and  _500
REMARK  208  A    between atoms: _500  and  _501
REMARK  209  A    between atoms: _501  and  _502
REMARK  210  A    between atoms: _511  and  _513
REMARK  211  A    between atoms: _513  and  _514
REMARK  212  A    between atoms: _513  and  _516
REMARK  213  A    between atoms: _516  and  _517
REMARK  214  A    between atoms: _520  and  _522
REMARK  215  A    between atoms: _522  and  _523
REMARK  216  A    between atoms: _522  and  _525
REMARK  217  A    between atoms: _525  and  _526
REMARK  218  A    between atoms: _529  and  _531
REMARK  219  A    between atoms: _531  and  _532
REMARK  220  A    between atoms: _531  and  _534
REMARK  221  A    between atoms: _534  and  _535
REMARK  222  A    between atoms: _535  and  _536
REMARK  223  A    between atoms: _536  and  _537
REMARK  224  A    between atoms: _537  and  _538
REMARK  225  A    between atoms: _542  and  _544
REMARK  226  A    between atoms: _544  and  _545
REMARK  227  A    between atoms: _547  and  _549
REMARK  228  A    between atoms: _549  and  _550
REMARK  229  A    between atoms: _549  and  _552
REMARK                            x       y       z     vdW  Elec       q    Type
REMARK                         _______ _______ _______ _____ _____    ______ ____
ROOT
ATOM      1  O   HOH     1      -0.439  13.009   4.462  0.00  0.00    +0.000 OA
ENDROOT
TORSDOF 0
REMARK  Name = ../refined-set-2016/4oma/4oma_pocket.pdb
REMARK  229 active torsions:
REMARK  status: ('A' for Active; 'I' for Inactive)
REMARK    1  A    between atoms: _1  and  _3
REMARK    2  A    between atoms: _3  and  _4
REMARK    3  A    between atoms: _3  and  _6
REMARK    4  A    between atoms: _6  and  _7
REMARK    5  A    between atoms: _10  and  _12
REMARK    6  A    between atoms: _12  and  _13
REMARK    7  A    between atoms: _16  and  _18
REMARK    8  A    between atoms: _18  and  _19
REMARK    9  A    between atoms: _18  and  _21
REMARK   10  A    between atoms: _21  and  _22
REMARK   11  A    between atoms: _24  and  _26
REMARK   12  A    between atoms: _26  and  _27
REMARK   13  A    between atoms: _29  and  _31
REMARK   14  A    between atoms: _31  and  _32
REMARK   15  A    between atoms: _31  and  _34
REMARK   16  A    between atoms: _34  and  _35
REMARK   17  A    between atoms: _38  and  _40
REMARK   18  A    between atoms: _40  and  _41
REMARK   19  A    between atoms: _40  and  _43
REMARK   20  A    between atoms: _43  and  _44
REMARK   21  A    between atoms: _46  and  _48
REMARK   22  A    between atoms: _48  and  _49
REMARK   23  A    between atoms: _52  and  _54
REMARK   24  A    between atoms: _54  and  _55
REMARK   25  A    between atoms: _54  and  _57
REMARK   26  A    between atoms: _57  and  _58
REMARK   27  A    between atoms: _61  and  _63
REMARK   28  A    between atoms: _63  and  _64
REMARK   29  A    between atoms: _63  and  _66
REMARK   30  A    between atoms: _66  and  _67
REMARK   31  A    between atoms: _70  and  _72
REMARK   32  A    between atoms: _72  and  _73
REMARK   33  A    between atoms: _76  and  _78
REMARK   34  A    between atoms: _78  and  _79
REMARK   35  A    between atoms: _78  and  _81
REMARK   36  A    between atoms: _81  and  _82
REMARK   37  A    between atoms: _85  and  _87
REMARK   38  A    between atoms: _87  and  _88
REMARK   39  A    between atoms: _87  and  _90
REMARK   40  A    between atoms: _90  and  _91
REMARK   41  A    between atoms: _96  and  _97
REMARK   42  A    between atoms: _99  and  _101
REMARK   43  A    between atoms: _101  and  _102
REMARK   44  A    between atoms: _104  and  _106
REMARK   45  A    between atoms: _106  and  _107
REMARK   46  A    between atoms: _106  and  _109
REMARK   47  A    between atoms: _111  and  _113
REMARK   48  A    between atoms: _113  and  _114
REMARK   49  A    between atoms: _113  and  _116
REMARK   50  A    between atoms: _116  and  _117
REMARK   51  A    between atoms: _120  and  _122
REMARK   52  A    between atoms: _122  and  _123
REMARK   53  A    between atoms: _122  and  _125
REMARK   54  A    between atoms: _125  and  _126
REMARK   55  A    between atoms: _131  and  _132
REMARK   56  A    between atoms: _134  and  _136
REMARK   57  A    between atoms: _136  and  _137
REMARK   58  A    between atoms: _136  and  _139
REMARK   59  A    between atoms: _139  and  _140
REMARK   60  A    between atoms: _143  and  _145
REMARK   61  A    between atoms: _145  and  _146
REMARK   62  A    between atoms: _145  and  _148
REMARK   63  A    between atoms: _148  and  _149
REMARK   64  A    between atoms: _149  and  _150
REMARK   65  A    between atoms: _153  and  _155
REMARK   66  A    between atoms: _155  and  _156
REMARK   67  A    between atoms: _155  and  _158
REMARK   68  A    between atoms: _158  and  _159
REMARK   69  A    between atoms: _163  and  _164
REMARK   70  A    between atoms: _169  and  _171
REMARK   71  A    between atoms: _171  and  _172
REMARK   72  A    between atoms: _175  and  _177
REMARK   73  A    between atoms: _177  and  _178
REMARK   74  A    between atoms: _177  and  _180
REMARK   75  A    between atoms: _180  and  _181
REMARK   76  A    between atoms: _186  and  _188
REMARK   77  A    between atoms: _188  and  _189
REMARK   78  A    between atoms: _188  and  _191
REMARK   79  A    between atoms: _191  and  _192
REMARK   80  A    between atoms: _195  and  _197
REMARK   81  A    between atoms: _197  and  _198
REMARK   82  A    between atoms: _197  and  _200
REMARK   83  A    between atoms: _200  and  _201
REMARK   84  A    between atoms: _206  and  _208
REMARK   85  A    between atoms: _208  and  _209
REMARK   86  A    between atoms: _208  and  _211
REMARK   87  A    between atoms: _211  and  _212
REMARK   88  A    between atoms: _215  and  _217
REMARK   89  A    between atoms: _217  and  _218
REMARK   90  A    between atoms: _217  and  _220
REMARK   91  A    between atoms: _220  and  _221
REMARK   92  A    between atoms: _227  and  _229
REMARK   93  A    between atoms: _229  and  _230
REMARK   94  A    between atoms: _229  and  _232
REMARK   95  A    between atoms: _232  and  _233
REMARK   96  A    between atoms: _233  and  _234
REMARK   97  A    between atoms: _236  and  _238
REMARK   98  A    between atoms: _238  and  _239
REMARK   99  A    between atoms: _238  and  _241
REMARK  100  A    between atoms: _244  and  _246
REMARK  101  A    between atoms: _246  and  _247
REMARK  102  A    between atoms: _246  and  _249
REMARK  103  A    between atoms: _249  and  _250
REMARK  104  A    between atoms: _255  and  _257
REMARK  105  A    between atoms: _257  and  _258
REMARK  106  A    between atoms: _257  and  _260
REMARK  107  A    between atoms: _260  and  _261
REMARK  108  A    between atoms: _263  and  _265
REMARK  109  A    between atoms: _265  and  _266
REMARK  110  A    between atoms: _265  and  _268
REMARK  111  A    between atoms: _271  and  _273
REMARK  112  A    between atoms: _273  and  _274
REMARK  113  A    between atoms: _273  and  _276
REMARK  114  A    between atoms: _276  and  _277
REMARK  115  A    between atoms: _280  and  _282
REMARK  116  A    between atoms: _282  and  _283
REMARK  117  A    between atoms: _282  and  _285
REMARK  118  A    between atoms: _285  and  _286
REMARK  119  A    between atoms: _286  and  _287
REMARK  120  A    between atoms: _287  and  _288
REMARK  121  A    between atoms: _288  and  _289
REMARK  122  A    between atoms: _293  and  _295
REMARK  123  A    between atoms: _295  and  _296
REMARK  124  A    between atoms: _295  and  _298
REMARK  125  A    between atoms: _301  and  _303
REMARK  126  A    between atoms: _303  and  _304
REMARK  127  A    between atoms: _303  and  _306
REMARK  128  A    between atoms: _306  and  _307
REMARK  129  A    between atoms: _310  and  _312
REMARK  130  A    between atoms: _312  and  _313
REMARK  131  A    between atoms: _315  and  _317
REMARK  132  A    between atoms: _317  and  _318
REMARK  133  A    between atoms: _320  and  _322
REMARK  134  A    between atoms: _322  and  _323
REMARK  135  A    between atoms: _322  and  _325
REMARK  136  A    between atoms: _325  and  _326
REMARK  137  A    between atoms: _329  and  _331
REMARK  138  A    between atoms: _331  and  _332
REMARK  139  A    between atoms: _331  and  _334
REMARK  140  A    between atoms: _334  and  _335
REMARK  141  A    between atoms: _338  and  _340
REMARK  142  A    between atoms: _340  and  _341
REMARK  143  A    between atoms: _344  and  _346
REMARK  144  A    between atoms: _346  and  _347
REMARK  145  A    between atoms: _346  and  _349
REMARK  146  A    between atoms: _352  and  _354
REMARK  147  A    between atoms: _354  and  _355
REMARK  148  A    between atoms: _354  and  _357
REMARK  149  A    between atoms: _357  and  _358
REMARK  150  A    between atoms: _360  and  _362
REMARK  151  A    between atoms: _362  and  _363
REMARK  152  A    between atoms: _362  and  _365
REMARK  153  A    between atoms: _365  and  _366
REMARK  154  A    between atoms: _369  and  _371
REMARK  155  A    between atoms: _371  and  _372
REMARK  156  A    between atoms: _374  and  _376
REMARK  157  A    between atoms: _376  and  _377
REMARK  158  A    between atoms: _376  and  _379
REMARK  159  A    between atoms: _379  and  _380
REMARK  160  A    between atoms: _383  and  _385
REMARK  161  A    between atoms: _385  and  _386
REMARK  162  A    between atoms: _385  and  _388
REMARK  163  A    between atoms: _388  and  _389
REMARK  164  A    between atoms: _389  and  _390
REMARK  165  A    between atoms: _395  and  _397
REMARK  166  A    between atoms: _397  and  _398
REMARK  167  A    between atoms: _397  and  _400
REMARK  168  A    between atoms: _400  and  _401
REMARK  169  A    between atoms: _404  and  _406
REMARK  170  A    between atoms: _406  and  _407
REMARK  171  A    between atoms: _406  and  _409
REMARK  172  A    between atoms: _409  and  _410
REMARK  173  A    between atoms: _410  and  _411
REMARK  174  A    between atoms: _411  and  _412
REMARK  175  A    between atoms: _421  and  _423
REMARK  176  A    between atoms: _423  and  _424
REMARK  177  A    between atoms: _423  and  _426
REMARK  178  A    between atoms: _426  and  _427
REMARK  179  A    between atoms: _429  and  _431
REMARK  180  A    between atoms: _431  and  _432
REMARK  181  A    between atoms: _431  and  _434
REMARK  182  A    between atoms: _434  and  _435
REMARK  183  A    between atoms: _438  and  _440
REMARK  184  A    between atoms: _440  and  _441
REMARK  185  A    between atoms: _440  and  _443
REMARK  186  A    between atoms: _443  and  _444
REMARK  187  A    between atoms: _450  and  _452
REMARK  188  A    between atoms: _452  and  _453
REMARK  189  A    between atoms: _452  and  _455
REMARK  190  A    between atoms: _455  and  _456
REMARK  191  A    between atoms: _462  and  _464
REMARK  192  A    between atoms: _464  and  _465
REMARK  193  A    between atoms: _464  and  _467
REMARK  194  A    between atoms: _467  and  _468
REMARK  195  A    between atoms: _471  and  _473
REMARK  196  A    between atoms: _473  and  _474
REMARK  197  A    between atoms: _473  and  _476
REMARK  198  A    between atoms: _476  and  _477
REMARK  199  A    between atoms: _482  and  _483
REMARK  200  A    between atoms: _485  and  _487
REMARK  201  A    between atoms: _487  and  _488
REMARK  202  A    between atoms: _487  and  _490
REMARK  203  A    between atoms: _490  and  _491
REMARK  204  A    between atoms: _494  and  _496
REMARK  205  A    between atoms: _496  and  _497
REMARK  206  A    between atoms: _496  and  _499
REMARK  207  A    between atoms: _499  and  _500
REMARK  208  A    between atoms: _500  and  _501
REMARK  209  A    between atoms: _501  and  _502
REMARK  210  A    between atoms: _511  and  _513
REMARK  211  A    between atoms: _513  and  _514
REMARK  212  A    between atoms: _513  and  _516
REMARK  213  A    between atoms: _516  and  _517
REMARK  214  A    between atoms: _520  and  _522
REMARK  215  A    between atoms: _522  and  _523
REMARK  216  A    between atoms: _522  and  _525
REMARK  217  A    between atoms: _525  and  _526
REMARK  218  A    between atoms: _529  and  _531
REMARK  219  A    between atoms: _531  and  _532
REMARK  220  A    between atoms: _531  and  _534
REMARK  221  A    between atoms: _534  and  _535
REMARK  222  A    between atoms: _535  and  _536
REMARK  223  A    between atoms: _536  and  _537
REMARK  224  A    between atoms: _537  and  _538
REMARK  225  A    between atoms: _542  and  _544
REMARK  226  A    between atoms: _544  and  _545
REMARK  227  A    between atoms: _547  and  _549
REMARK  228  A    between atoms: _549  and  _550
REMARK  229  A    between atoms: _549  and  _552
REMARK                            x       y       z     vdW  Elec       q    Type
REMARK                         _______ _______ _______ _____ _____    ______ ____
ROOT
ATOM      1  O   HOH     1       4.136  24.889  14.604  0.00  0.00    +0.000 OA
ENDROOT
TORSDOF 0
REMARK  Name = ../refined-set-2016/4oma/4oma_pocket.pdb
REMARK  229 active torsions:
REMARK  status: ('A' for Active; 'I' for Inactive)
REMARK    1  A    between atoms: _1  and  _3
REMARK    2  A    between atoms: _3  and  _4
REMARK    3  A    between atoms: _3  and  _6
REMARK    4  A    between atoms: _6  and  _7
REMARK    5  A    between atoms: _10  and  _12
REMARK    6  A    between atoms: _12  and  _13
REMARK    7  A    between atoms: _16  and  _18
REMARK    8  A    between atoms: _18  and  _19
REMARK    9  A    between atoms: _18  and  _21
REMARK   10  A    between atoms: _21  and  _22
REMARK   11  A    between atoms: _24  and  _26
REMARK   12  A    between atoms: _26  and  _27
REMARK   13  A    between atoms: _29  and  _31
REMARK   14  A    between atoms: _31  and  _32
REMARK   15  A    between atoms: _31  and  _34
REMARK   16  A    between atoms: _34  and  _35
REMARK   17  A    between atoms: _38  and  _40
REMARK   18  A    between atoms: _40  and  _41
REMARK   19  A    between atoms: _40  and  _43
REMARK   20  A    between atoms: _43  and  _44
REMARK   21  A    between atoms: _46  and  _48
REMARK   22  A    between atoms: _48  and  _49
REMARK   23  A    between atoms: _52  and  _54
REMARK   24  A    between atoms: _54  and  _55
REMARK   25  A    between atoms: _54  and  _57
REMARK   26  A    between atoms: _57  and  _58
REMARK   27  A    between atoms: _61  and  _63
REMARK   28  A    between atoms: _63  and  _64
REMARK   29  A    between atoms: _63  and  _66
REMARK   30  A    between atoms: _66  and  _67
REMARK   31  A    between atoms: _70  and  _72
REMARK   32  A    between atoms: _72  and  _73
REMARK   33  A    between atoms: _76  and  _78
REMARK   34  A    between atoms: _78  and  _79
REMARK   35  A    between atoms: _78  and  _81
REMARK   36  A    between atoms: _81  and  _82
REMARK   37  A    between atoms: _85  and  _87
REMARK   38  A    between atoms: _87  and  _88
REMARK   39  A    between atoms: _87  and  _90
REMARK   40  A    between atoms: _90  and  _91
REMARK   41  A    between atoms: _96  and  _97
REMARK   42  A    between atoms: _99  and  _101
REMARK   43  A    between atoms: _101  and  _102
REMARK   44  A    between atoms: _104  and  _106
REMARK   45  A    between atoms: _106  and  _107
REMARK   46  A    between atoms: _106  and  _109
REMARK   47  A    between atoms: _111  and  _113
REMARK   48  A    between atoms: _113  and  _114
REMARK   49  A    between atoms: _113  and  _116
REMARK   50  A    between atoms: _116  and  _117
REMARK   51  A    between atoms: _120  and  _122
REMARK   52  A    between atoms: _122  and  _123
REMARK   53  A    between atoms: _122  and  _125
REMARK   54  A    between atoms: _125  and  _126
REMARK   55  A    between atoms: _131  and  _132
REMARK   56  A    between atoms: _134  and  _136
REMARK   57  A    between atoms: _136  and  _137
REMARK   58  A    between atoms: _136  and  _139
REMARK   59  A    between atoms: _139  and  _140
REMARK   60  A    between atoms: _143  and  _145
REMARK   61  A    between atoms: _145  and  _146
REMARK   62  A    between atoms: _145  and  _148
REMARK   63  A    between atoms: _148  and  _149
REMARK   64  A    between atoms: _149  and  _150
REMARK   65  A    between atoms: _153  and  _155
REMARK   66  A    between atoms: _155  and  _156
REMARK   67  A    between atoms: _155  and  _158
REMARK   68  A    between atoms: _158  and  _159
REMARK   69  A    between atoms: _163  and  _164
REMARK   70  A    between atoms: _169  and  _171
REMARK   71  A    between atoms: _171  and  _172
REMARK   72  A    between atoms: _175  and  _177
REMARK   73  A    between atoms: _177  and  _178
REMARK   74  A    between atoms: _177  and  _180
REMARK   75  A    between atoms: _180  and  _181
REMARK   76  A    between atoms: _186  and  _188
REMARK   77  A    between atoms: _188  and  _189
REMARK   78  A    between atoms: _188  and  _191
REMARK   79  A    between atoms: _191  and  _192
REMARK   80  A    between atoms: _195  and  _197
REMARK   81  A    between atoms: _197  and  _198
REMARK   82  A    between atoms: _197  and  _200
REMARK   83  A    between atoms: _200  and  _201
REMARK   84  A    between atoms: _206  and  _208
REMARK   85  A    between atoms: _208  and  _209
REMARK   86  A    between atoms: _208  and  _211
REMARK   87  A    between atoms: _211  and  _212
REMARK   88  A    between atoms: _215  and  _217
REMARK   89  A    between atoms: _217  and  _218
REMARK   90  A    between atoms: _217  and  _220
REMARK   91  A    between atoms: _220  and  _221
REMARK   92  A    between atoms: _227  and  _229
REMARK   93  A    between atoms: _229  and  _230
REMARK   94  A    between atoms: _229  and  _232
REMARK   95  A    between atoms: _232  and  _233
REMARK   96  A    between atoms: _233  and  _234
REMARK   97  A    between atoms: _236  and  _238
REMARK   98  A    between atoms: _238  and  _239
REMARK   99  A    between atoms: _238  and  _241
REMARK  100  A    between atoms: _244  and  _246
REMARK  101  A    between atoms: _246  and  _247
REMARK  102  A    between atoms: _246  and  _249
REMARK  103  A    between atoms: _249  and  _250
REMARK  104  A    between atoms: _255  and  _257
REMARK  105  A    between atoms: _257  and  _258
REMARK  106  A    between atoms: _257  and  _260
REMARK  107  A    between atoms: _260  and  _261
REMARK  108  A    between atoms: _263  and  _265
REMARK  109  A    between atoms: _265  and  _266
REMARK  110  A    between atoms: _265  and  _268
REMARK  111  A    between atoms: _271  and  _273
REMARK  112  A    between atoms: _273  and  _274
REMARK  113  A    between atoms: _273  and  _276
REMARK  114  A    between atoms: _276  and  _277
REMARK  115  A    between atoms: _280  and  _282
REMARK  116  A    between atoms: _282  and  _283
REMARK  117  A    between atoms: _282  and  _285
REMARK  118  A    between atoms: _285  and  _286
REMARK  119  A    between atoms: _286  and  _287
REMARK  120  A    between atoms: _287  and  _288
REMARK  121  A    between atoms: _288  and  _289
REMARK  122  A    between atoms: _293  and  _295
REMARK  123  A    between atoms: _295  and  _296
REMARK  124  A    between atoms: _295  and  _298
REMARK  125  A    between atoms: _301  and  _303
REMARK  126  A    between atoms: _303  and  _304
REMARK  127  A    between atoms: _303  and  _306
REMARK  128  A    between atoms: _306  and  _307
REMARK  129  A    between atoms: _310  and  _312
REMARK  130  A    between atoms: _312  and  _313
REMARK  131  A    between atoms: _315  and  _317
REMARK  132  A    between atoms: _317  and  _318
REMARK  133  A    between atoms: _320  and  _322
REMARK  134  A    between atoms: _322  and  _323
REMARK  135  A    between atoms: _322  and  _325
REMARK  136  A    between atoms: _325  and  _326
REMARK  137  A    between atoms: _329  and  _331
REMARK  138  A    between atoms: _331  and  _332
REMARK  139  A    between atoms: _331  and  _334
REMARK  140  A    between atoms: _334  and  _335
REMARK  141  A    between atoms: _338  and  _340
REMARK  142  A    between atoms: _340  and  _341
REMARK  143  A    between atoms: _344  and  _346
REMARK  144  A    between atoms: _346  and  _347
REMARK  145  A    between atoms: _346  and  _349
REMARK  146  A    between atoms: _352  and  _354
REMARK  147  A    between atoms: _354  and  _355
REMARK  148  A    between atoms: _354  and  _357
REMARK  149  A    between atoms: _357  and  _358
REMARK  150  A    between atoms: _360  and  _362
REMARK  151  A    between atoms: _362  and  _363
REMARK  152  A    between atoms: _362  and  _365
REMARK  153  A    between atoms: _365  and  _366
REMARK  154  A    between atoms: _369  and  _371
REMARK  155  A    between atoms: _371  and  _372
REMARK  156  A    between atoms: _374  and  _376
REMARK  157  A    between atoms: _376  and  _377
REMARK  158  A    between atoms: _376  and  _379
REMARK  159  A    between atoms: _379  and  _380
REMARK  160  A    between atoms: _383  and  _385
REMARK  161  A    between atoms: _385  and  _386
REMARK  162  A    between atoms: _385  and  _388
REMARK  163  A    between atoms: _388  and  _389
REMARK  164  A    between atoms: _389  and  _390
REMARK  165  A    between atoms: _395  and  _397
REMARK  166  A    between atoms: _397  and  _398
REMARK  167  A    between atoms: _397  and  _400
REMARK  168  A    between atoms: _400  and  _401
REMARK  169  A    between atoms: _404  and  _406
REMARK  170  A    between atoms: _406  and  _407
REMARK  171  A    between atoms: _406  and  _409
REMARK  172  A    between atoms: _409  and  _410
REMARK  173  A    between atoms: _410  and  _411
REMARK  174  A    between atoms: _411  and  _412
REMARK  175  A    between atoms: _421  and  _423
REMARK  176  A    between atoms: _423  and  _424
REMARK  177  A    between atoms: _423  and  _426
REMARK  178  A    between atoms: _426  and  _427
REMARK  179  A    between atoms: _429  and  _431
REMARK  180  A    between atoms: _431  and  _432
REMARK  181  A    between atoms: _431  and  _434
REMARK  182  A    between atoms: _434  and  _435
REMARK  183  A    between atoms: _438  and  _440
REMARK  184  A    between atoms: _440  and  _441
REMARK  185  A    between atoms: _440  and  _443
REMARK  186  A    between atoms: _443  and  _444
REMARK  187  A    between atoms: _450  and  _452
REMARK  188  A    between atoms: _452  and  _453
REMARK  189  A    between atoms: _452  and  _455
REMARK  190  A    between atoms: _455  and  _456
REMARK  191  A    between atoms: _462  and  _464
REMARK  192  A    between atoms: _464  and  _465
REMARK  193  A    between atoms: _464  and  _467
REMARK  194  A    between atoms: _467  and  _468
REMARK  195  A    between atoms: _471  and  _473
REMARK  196  A    between atoms: _473  and  _474
REMARK  197  A    between atoms: _473  and  _476
REMARK  198  A    between atoms: _476  and  _477
REMARK  199  A    between atoms: _482  and  _483
REMARK  200  A    between atoms: _485  and  _487
REMARK  201  A    between atoms: _487  and  _488
REMARK  202  A    between atoms: _487  and  _490
REMARK  203  A    between atoms: _490  and  _491
REMARK  204  A    between atoms: _494  and  _496
REMARK  205  A    between atoms: _496  and  _497
REMARK  206  A    between atoms: _496  and  _499
REMARK  207  A    between atoms: _499  and  _500
REMARK  208  A    between atoms: _500  and  _501
REMARK  209  A    between atoms: _501  and  _502
REMARK  210  A    between atoms: _511  and  _513
REMARK  211  A    between atoms: _513  and  _514
REMARK  212  A    between atoms: _513  and  _516
REMARK  213  A    between atoms: _516  and  _517
REMARK  214  A    between atoms: _520  and  _522
REMARK  215  A    between atoms: _522  and  _523
REMARK  216  A    between atoms: _522  and  _525
REMARK  217  A    between atoms: _525  and  _526
REMARK  218  A    between atoms: _529  and  _531
REMARK  219  A    between atoms: _531  and  _532
REMARK  220  A    between atoms: _531  and  _534
REMARK  221  A    between atoms: _534  and  _535
REMARK  222  A    between atoms: _535  and  _536
REMARK  223  A    between atoms: _536  and  _537
REMARK  224  A    between atoms: _537  and  _538
REMARK  225  A    between atoms: _542  and  _544
REMARK  226  A    between atoms: _544  and  _545
REMARK  227  A    between atoms: _547  and  _549
REMARK  228  A    between atoms: _549  and  _550
REMARK  229  A    between atoms: _549  and  _552
REMARK                            x       y       z     vdW  Elec       q    Type
REMARK                         _______ _______ _______ _____ _____    ______ ____
ROOT
ATOM      1  O   HOH     1       3.133  20.808  19.675  0.00  0.00    +0.000 OA
ENDROOT
TORSDOF 0
REMARK  Name = ../refined-set-2016/4oma/4oma_pocket.pdb
REMARK  229 active torsions:
REMARK  status: ('A' for Active; 'I' for Inactive)
REMARK    1  A    between atoms: _1  and  _3
REMARK    2  A    between atoms: _3  and  _4
REMARK    3  A    between atoms: _3  and  _6
REMARK    4  A    between atoms: _6  and  _7
REMARK    5  A    between atoms: _10  and  _12
REMARK    6  A    between atoms: _12  and  _13
REMARK    7  A    between atoms: _16  and  _18
REMARK    8  A    between atoms: _18  and  _19
REMARK    9  A    between atoms: _18  and  _21
REMARK   10  A    between atoms: _21  and  _22
REMARK   11  A    between atoms: _24  and  _26
REMARK   12  A    between atoms: _26  and  _27
REMARK   13  A    between atoms: _29  and  _31
REMARK   14  A    between atoms: _31  and  _32
REMARK   15  A    between atoms: _31  and  _34
REMARK   16  A    between atoms: _34  and  _35
REMARK   17  A    between atoms: _38  and  _40
REMARK   18  A    between atoms: _40  and  _41
REMARK   19  A    between atoms: _40  and  _43
REMARK   20  A    between atoms: _43  and  _44
REMARK   21  A    between atoms: _46  and  _48
REMARK   22  A    between atoms: _48  and  _49
REMARK   23  A    between atoms: _52  and  _54
REMARK   24  A    between atoms: _54  and  _55
REMARK   25  A    between atoms: _54  and  _57
REMARK   26  A    between atoms: _57  and  _58
REMARK   27  A    between atoms: _61  and  _63
REMARK   28  A    between atoms: _63  and  _64
REMARK   29  A    between atoms: _63  and  _66
REMARK   30  A    between atoms: _66  and  _67
REMARK   31  A    between atoms: _70  and  _72
REMARK   32  A    between atoms: _72  and  _73
REMARK   33  A    between atoms: _76  and  _78
REMARK   34  A    between atoms: _78  and  _79
REMARK   35  A    between atoms: _78  and  _81
REMARK   36  A    between atoms: _81  and  _82
REMARK   37  A    between atoms: _85  and  _87
REMARK   38  A    between atoms: _87  and  _88
REMARK   39  A    between atoms: _87  and  _90
REMARK   40  A    between atoms: _90  and  _91
REMARK   41  A    between atoms: _96  and  _97
REMARK   42  A    between atoms: _99  and  _101
REMARK   43  A    between atoms: _101  and  _102
REMARK   44  A    between atoms: _104  and  _106
REMARK   45  A    between atoms: _106  and  _107
REMARK   46  A    between atoms: _106  and  _109
REMARK   47  A    between atoms: _111  and  _113
REMARK   48  A    between atoms: _113  and  _114
REMARK   49  A    between atoms: _113  and  _116
REMARK   50  A    between atoms: _116  and  _117
REMARK   51  A    between atoms: _120  and  _122
REMARK   52  A    between atoms: _122  and  _123
REMARK   53  A    between atoms: _122  and  _125
REMARK   54  A    between atoms: _125  and  _126
REMARK   55  A    between atoms: _131  and  _132
REMARK   56  A    between atoms: _134  and  _136
REMARK   57  A    between atoms: _136  and  _137
REMARK   58  A    between atoms: _136  and  _139
REMARK   59  A    between atoms: _139  and  _140
REMARK   60  A    between atoms: _143  and  _145
REMARK   61  A    between atoms: _145  and  _146
REMARK   62  A    between atoms: _145  and  _148
REMARK   63  A    between atoms: _148  and  _149
REMARK   64  A    between atoms: _149  and  _150
REMARK   65  A    between atoms: _153  and  _155
REMARK   66  A    between atoms: _155  and  _156
REMARK   67  A    between atoms: _155  and  _158
REMARK   68  A    between atoms: _158  and  _159
REMARK   69  A    between atoms: _163  and  _164
REMARK   70  A    between atoms: _169  and  _171
REMARK   71  A    between atoms: _171  and  _172
REMARK   72  A    between atoms: _175  and  _177
REMARK   73  A    between atoms: _177  and  _178
REMARK   74  A    between atoms: _177  and  _180
REMARK   75  A    between atoms: _180  and  _181
REMARK   76  A    between atoms: _186  and  _188
REMARK   77  A    between atoms: _188  and  _189
REMARK   78  A    between atoms: _188  and  _191
REMARK   79  A    between atoms: _191  and  _192
REMARK   80  A    between atoms: _195  and  _197
REMARK   81  A    between atoms: _197  and  _198
REMARK   82  A    between atoms: _197  and  _200
REMARK   83  A    between atoms: _200  and  _201
REMARK   84  A    between atoms: _206  and  _208
REMARK   85  A    between atoms: _208  and  _209
REMARK   86  A    between atoms: _208  and  _211
REMARK   87  A    between atoms: _211  and  _212
REMARK   88  A    between atoms: _215  and  _217
REMARK   89  A    between atoms: _217  and  _218
REMARK   90  A    between atoms: _217  and  _220
REMARK   91  A    between atoms: _220  and  _221
REMARK   92  A    between atoms: _227  and  _229
REMARK   93  A    between atoms: _229  and  _230
REMARK   94  A    between atoms: _229  and  _232
REMARK   95  A    between atoms: _232  and  _233
REMARK   96  A    between atoms: _233  and  _234
REMARK   97  A    between atoms: _236  and  _238
REMARK   98  A    between atoms: _238  and  _239
REMARK   99  A    between atoms: _238  and  _241
REMARK  100  A    between atoms: _244  and  _246
REMARK  101  A    between atoms: _246  and  _247
REMARK  102  A    between atoms: _246  and  _249
REMARK  103  A    between atoms: _249  and  _250
REMARK  104  A    between atoms: _255  and  _257
REMARK  105  A    between atoms: _257  and  _258
REMARK  106  A    between atoms: _257  and  _260
REMARK  107  A    between atoms: _260  and  _261
REMARK  108  A    between atoms: _263  and  _265
REMARK  109  A    between atoms: _265  and  _266
REMARK  110  A    between atoms: _265  and  _268
REMARK  111  A    between atoms: _271  and  _273
REMARK  112  A    between atoms: _273  and  _274
REMARK  113  A    between atoms: _273  and  _276
REMARK  114  A    between atoms: _276  and  _277
REMARK  115  A    between atoms: _280  and  _282
REMARK  116  A    between atoms: _282  and  _283
REMARK  117  A    between atoms: _282  and  _285
REMARK  118  A    between atoms: _285  and  _286
REMARK  119  A    between atoms: _286  and  _287
REMARK  120  A    between atoms: _287  and  _288
REMARK  121  A    between atoms: _288  and  _289
REMARK  122  A    between atoms: _293  and  _295
REMARK  123  A    between atoms: _295  and  _296
REMARK  124  A    between atoms: _295  and  _298
REMARK  125  A    between atoms: _301  and  _303
REMARK  126  A    between atoms: _303  and  _304
REMARK  127  A    between atoms: _303  and  _306
REMARK  128  A    between atoms: _306  and  _307
REMARK  129  A    between atoms: _310  and  _312
REMARK  130  A    between atoms: _312  and  _313
REMARK  131  A    between atoms: _315  and  _317
REMARK  132  A    between atoms: _317  and  _318
REMARK  133  A    between atoms: _320  and  _322
REMARK  134  A    between atoms: _322  and  _323
REMARK  135  A    between atoms: _322  and  _325
REMARK  136  A    between atoms: _325  and  _326
REMARK  137  A    between atoms: _329  and  _331
REMARK  138  A    between atoms: _331  and  _332
REMARK  139  A    between atoms: _331  and  _334
REMARK  140  A    between atoms: _334  and  _335
REMARK  141  A    between atoms: _338  and  _340
REMARK  142  A    between atoms: _340  and  _341
REMARK  143  A    between atoms: _344  and  _346
REMARK  144  A    between atoms: _346  and  _347
REMARK  145  A    between atoms: _346  and  _349
REMARK  146  A    between atoms: _352  and  _354
REMARK  147  A    between atoms: _354  and  _355
REMARK  148  A    between atoms: _354  and  _357
REMARK  149  A    between atoms: _357  and  _358
REMARK  150  A    between atoms: _360  and  _362
REMARK  151  A    between atoms: _362  and  _363
REMARK  152  A    between atoms: _362  and  _365
REMARK  153  A    between atoms: _365  and  _366
REMARK  154  A    between atoms: _369  and  _371
REMARK  155  A    between atoms: _371  and  _372
REMARK  156  A    between atoms: _374  and  _376
REMARK  157  A    between atoms: _376  and  _377
REMARK  158  A    between atoms: _376  and  _379
REMARK  159  A    between atoms: _379  and  _380
REMARK  160  A    between atoms: _383  and  _385
REMARK  161  A    between atoms: _385  and  _386
REMARK  162  A    between atoms: _385  and  _388
REMARK  163  A    between atoms: _388  and  _389
REMARK  164  A    between atoms: _389  and  _390
REMARK  165  A    between atoms: _395  and  _397
REMARK  166  A    between atoms: _397  and  _398
REMARK  167  A    between atoms: _397  and  _400
REMARK  168  A    between atoms: _400  and  _401
REMARK  169  A    between atoms: _404  and  _406
REMARK  170  A    between atoms: _406  and  _407
REMARK  171  A    between atoms: _406  and  _409
REMARK  172  A    between atoms: _409  and  _410
REMARK  173  A    between atoms: _410  and  _411
REMARK  174  A    between atoms: _411  and  _412
REMARK  175  A    between atoms: _421  and  _423
REMARK  176  A    between atoms: _423  and  _424
REMARK  177  A    between atoms: _423  and  _426
REMARK  178  A    between atoms: _426  and  _427
REMARK  179  A    between atoms: _429  and  _431
REMARK  180  A    between atoms: _431  and  _432
REMARK  181  A    between atoms: _431  and  _434
REMARK  182  A    between atoms: _434  and  _435
REMARK  183  A    between atoms: _438  and  _440
REMARK  184  A    between atoms: _440  and  _441
REMARK  185  A    between atoms: _440  and  _443
REMARK  186  A    between atoms: _443  and  _444
REMARK  187  A    between atoms: _450  and  _452
REMARK  188  A    between atoms: _452  and  _453
REMARK  189  A    between atoms: _452  and  _455
REMARK  190  A    between atoms: _455  and  _456
REMARK  191  A    between atoms: _462  and  _464
REMARK  192  A    between atoms: _464  and  _465
REMARK  193  A    between atoms: _464  and  _467
REMARK  194  A    between atoms: _467  and  _468
REMARK  195  A    between atoms: _471  and  _473
REMARK  196  A    between atoms: _473  and  _474
REMARK  197  A    between atoms: _473  and  _476
REMARK  198  A    between atoms: _476  and  _477
REMARK  199  A    between atoms: _482  and  _483
REMARK  200  A    between atoms: _485  and  _487
REMARK  201  A    between atoms: _487  and  _488
REMARK  202  A    between atoms: _487  and  _490
REMARK  203  A    between atoms: _490  and  _491
REMARK  204  A    between atoms: _494  and  _496
REMARK  205  A    between atoms: _496  and  _497
REMARK  206  A    between atoms: _496  and  _499
REMARK  207  A    between atoms: _499  and  _500
REMARK  208  A    between atoms: _500  and  _501
REMARK  209  A    between atoms: _501  and  _502
REMARK  210  A    between atoms: _511  and  _513
REMARK  211  A    between atoms: _513  and  _514
REMARK  212  A    between atoms: _513  and  _516
REMARK  213  A    between atoms: _516  and  _517
REMARK  214  A    between atoms: _520  and  _522
REMARK  215  A    between atoms: _522  and  _523
REMARK  216  A    between atoms: _522  and  _525
REMARK  217  A    between atoms: _525  and  _526
REMARK  218  A    between atoms: _529  and  _531
REMARK  219  A    between atoms: _531  and  _532
REMARK  220  A    between atoms: _531  and  _534
REMARK  221  A    between atoms: _534  and  _535
REMARK  222  A    between atoms: _535  and  _536
REMARK  223  A    between atoms: _536  and  _537
REMARK  224  A    between atoms: _537  and  _538
REMARK  225  A    between atoms: _542  and  _544
REMARK  226  A    between atoms: _544  and  _545
REMARK  227  A    between atoms: _547  and  _549
REMARK  228  A    between atoms: _549  and  _550
REMARK  229  A    between atoms: _549  and  _552
REMARK                            x       y       z     vdW  Elec       q    Type
REMARK                         _______ _______ _______ _____ _____    ______ ____
ROOT
ATOM      1  O   HOH     1      14.461  13.557  16.840  0.00  0.00    +0.000 OA
ENDROOT
TORSDOF 0
REMARK  Name = ../refined-set-2016/4oma/4oma_pocket.pdb
REMARK  229 active torsions:
REMARK  status: ('A' for Active; 'I' for Inactive)
REMARK    1  A    between atoms: _1  and  _3
REMARK    2  A    between atoms: _3  and  _4
REMARK    3  A    between atoms: _3  and  _6
REMARK    4  A    between atoms: _6  and  _7
REMARK    5  A    between atoms: _10  and  _12
REMARK    6  A    between atoms: _12  and  _13
REMARK    7  A    between atoms: _16  and  _18
REMARK    8  A    between atoms: _18  and  _19
REMARK    9  A    between atoms: _18  and  _21
REMARK   10  A    between atoms: _21  and  _22
REMARK   11  A    between atoms: _24  and  _26
REMARK   12  A    between atoms: _26  and  _27
REMARK   13  A    between atoms: _29  and  _31
REMARK   14  A    between atoms: _31  and  _32
REMARK   15  A    between atoms: _31  and  _34
REMARK   16  A    between atoms: _34  and  _35
REMARK   17  A    between atoms: _38  and  _40
REMARK   18  A    between atoms: _40  and  _41
REMARK   19  A    between atoms: _40  and  _43
REMARK   20  A    between atoms: _43  and  _44
REMARK   21  A    between atoms: _46  and  _48
REMARK   22  A    between atoms: _48  and  _49
REMARK   23  A    between atoms: _52  and  _54
REMARK   24  A    between atoms: _54  and  _55
REMARK   25  A    between atoms: _54  and  _57
REMARK   26  A    between atoms: _57  and  _58
REMARK   27  A    between atoms: _61  and  _63
REMARK   28  A    between atoms: _63  and  _64
REMARK   29  A    between atoms: _63  and  _66
REMARK   30  A    between atoms: _66  and  _67
REMARK   31  A    between atoms: _70  and  _72
REMARK   32  A    between atoms: _72  and  _73
REMARK   33  A    between atoms: _76  and  _78
REMARK   34  A    between atoms: _78  and  _79
REMARK   35  A    between atoms: _78  and  _81
REMARK   36  A    between atoms: _81  and  _82
REMARK   37  A    between atoms: _85  and  _87
REMARK   38  A    between atoms: _87  and  _88
REMARK   39  A    between atoms: _87  and  _90
REMARK   40  A    between atoms: _90  and  _91
REMARK   41  A    between atoms: _96  and  _97
REMARK   42  A    between atoms: _99  and  _101
REMARK   43  A    between atoms: _101  and  _102
REMARK   44  A    between atoms: _104  and  _106
REMARK   45  A    between atoms: _106  and  _107
REMARK   46  A    between atoms: _106  and  _109
REMARK   47  A    between atoms: _111  and  _113
REMARK   48  A    between atoms: _113  and  _114
REMARK   49  A    between atoms: _113  and  _116
REMARK   50  A    between atoms: _116  and  _117
REMARK   51  A    between atoms: _120  and  _122
REMARK   52  A    between atoms: _122  and  _123
REMARK   53  A    between atoms: _122  and  _125
REMARK   54  A    between atoms: _125  and  _126
REMARK   55  A    between atoms: _131  and  _132
REMARK   56  A    between atoms: _134  and  _136
REMARK   57  A    between atoms: _136  and  _137
REMARK   58  A    between atoms: _136  and  _139
REMARK   59  A    between atoms: _139  and  _140
REMARK   60  A    between atoms: _143  and  _145
REMARK   61  A    between atoms: _145  and  _146
REMARK   62  A    between atoms: _145  and  _148
REMARK   63  A    between atoms: _148  and  _149
REMARK   64  A    between atoms: _149  and  _150
REMARK   65  A    between atoms: _153  and  _155
REMARK   66  A    between atoms: _155  and  _156
REMARK   67  A    between atoms: _155  and  _158
REMARK   68  A    between atoms: _158  and  _159
REMARK   69  A    between atoms: _163  and  _164
REMARK   70  A    between atoms: _169  and  _171
REMARK   71  A    between atoms: _171  and  _172
REMARK   72  A    between atoms: _175  and  _177
REMARK   73  A    between atoms: _177  and  _178
REMARK   74  A    between atoms: _177  and  _180
REMARK   75  A    between atoms: _180  and  _181
REMARK   76  A    between atoms: _186  and  _188
REMARK   77  A    between atoms: _188  and  _189
REMARK   78  A    between atoms: _188  and  _191
REMARK   79  A    between atoms: _191  and  _192
REMARK   80  A    between atoms: _195  and  _197
REMARK   81  A    between atoms: _197  and  _198
REMARK   82  A    between atoms: _197  and  _200
REMARK   83  A    between atoms: _200  and  _201
REMARK   84  A    between atoms: _206  and  _208
REMARK   85  A    between atoms: _208  and  _209
REMARK   86  A    between atoms: _208  and  _211
REMARK   87  A    between atoms: _211  and  _212
REMARK   88  A    between atoms: _215  and  _217
REMARK   89  A    between atoms: _217  and  _218
REMARK   90  A    between atoms: _217  and  _220
REMARK   91  A    between atoms: _220  and  _221
REMARK   92  A    between atoms: _227  and  _229
REMARK   93  A    between atoms: _229  and  _230
REMARK   94  A    between atoms: _229  and  _232
REMARK   95  A    between atoms: _232  and  _233
REMARK   96  A    between atoms: _233  and  _234
REMARK   97  A    between atoms: _236  and  _238
REMARK   98  A    between atoms: _238  and  _239
REMARK   99  A    between atoms: _238  and  _241
REMARK  100  A    between atoms: _244  and  _246
REMARK  101  A    between atoms: _246  and  _247
REMARK  102  A    between atoms: _246  and  _249
REMARK  103  A    between atoms: _249  and  _250
REMARK  104  A    between atoms: _255  and  _257
REMARK  105  A    between atoms: _257  and  _258
REMARK  106  A    between atoms: _257  and  _260
REMARK  107  A    between atoms: _260  and  _261
REMARK  108  A    between atoms: _263  and  _265
REMARK  109  A    between atoms: _265  and  _266
REMARK  110  A    between atoms: _265  and  _268
REMARK  111  A    between atoms: _271  and  _273
REMARK  112  A    between atoms: _273  and  _274
REMARK  113  A    between atoms: _273  and  _276
REMARK  114  A    between atoms: _276  and  _277
REMARK  115  A    between atoms: _280  and  _282
REMARK  116  A    between atoms: _282  and  _283
REMARK  117  A    between atoms: _282  and  _285
REMARK  118  A    between atoms: _285  and  _286
REMARK  119  A    between atoms: _286  and  _287
REMARK  120  A    between atoms: _287  and  _288
REMARK  121  A    between atoms: _288  and  _289
REMARK  122  A    between atoms: _293  and  _295
REMARK  123  A    between atoms: _295  and  _296
REMARK  124  A    between atoms: _295  and  _298
REMARK  125  A    between atoms: _301  and  _303
REMARK  126  A    between atoms: _303  and  _304
REMARK  127  A    between atoms: _303  and  _306
REMARK  128  A    between atoms: _306  and  _307
REMARK  129  A    between atoms: _310  and  _312
REMARK  130  A    between atoms: _312  and  _313
REMARK  131  A    between atoms: _315  and  _317
REMARK  132  A    between atoms: _317  and  _318
REMARK  133  A    between atoms: _320  and  _322
REMARK  134  A    between atoms: _322  and  _323
REMARK  135  A    between atoms: _322  and  _325
REMARK  136  A    between atoms: _325  and  _326
REMARK  137  A    between atoms: _329  and  _331
REMARK  138  A    between atoms: _331  and  _332
REMARK  139  A    between atoms: _331  and  _334
REMARK  140  A    between atoms: _334  and  _335
REMARK  141  A    between atoms: _338  and  _340
REMARK  142  A    between atoms: _340  and  _341
REMARK  143  A    between atoms: _344  and  _346
REMARK  144  A    between atoms: _346  and  _347
REMARK  145  A    between atoms: _346  and  _349
REMARK  146  A    between atoms: _352  and  _354
REMARK  147  A    between atoms: _354  and  _355
REMARK  148  A    between atoms: _354  and  _357
REMARK  149  A    between atoms: _357  and  _358
REMARK  150  A    between atoms: _360  and  _362
REMARK  151  A    between atoms: _362  and  _363
REMARK  152  A    between atoms: _362  and  _365
REMARK  153  A    between atoms: _365  and  _366
REMARK  154  A    between atoms: _369  and  _371
REMARK  155  A    between atoms: _371  and  _372
REMARK  156  A    between atoms: _374  and  _376
REMARK  157  A    between atoms: _376  and  _377
REMARK  158  A    between atoms: _376  and  _379
REMARK  159  A    between atoms: _379  and  _380
REMARK  160  A    between atoms: _383  and  _385
REMARK  161  A    between atoms: _385  and  _386
REMARK  162  A    between atoms: _385  and  _388
REMARK  163  A    between atoms: _388  and  _389
REMARK  164  A    between atoms: _389  and  _390
REMARK  165  A    between atoms: _395  and  _397
REMARK  166  A    between atoms: _397  and  _398
REMARK  167  A    between atoms: _397  and  _400
REMARK  168  A    between atoms: _400  and  _401
REMARK  169  A    between atoms: _404  and  _406
REMARK  170  A    between atoms: _406  and  _407
REMARK  171  A    between atoms: _406  and  _409
REMARK  172  A    between atoms: _409  and  _410
REMARK  173  A    between atoms: _410  and  _411
REMARK  174  A    between atoms: _411  and  _412
REMARK  175  A    between atoms: _421  and  _423
REMARK  176  A    between atoms: _423  and  _424
REMARK  177  A    between atoms: _423  and  _426
REMARK  178  A    between atoms: _426  and  _427
REMARK  179  A    between atoms: _429  and  _431
REMARK  180  A    between atoms: _431  and  _432
REMARK  181  A    between atoms: _431  and  _434
REMARK  182  A    between atoms: _434  and  _435
REMARK  183  A    between atoms: _438  and  _440
REMARK  184  A    between atoms: _440  and  _441
REMARK  185  A    between atoms: _440  and  _443
REMARK  186  A    between atoms: _443  and  _444
REMARK  187  A    between atoms: _450  and  _452
REMARK  188  A    between atoms: _452  and  _453
REMARK  189  A    between atoms: _452  and  _455
REMARK  190  A    between atoms: _455  and  _456
REMARK  191  A    between atoms: _462  and  _464
REMARK  192  A    between atoms: _464  and  _465
REMARK  193  A    between atoms: _464  and  _467
REMARK  194  A    between atoms: _467  and  _468
REMARK  195  A    between atoms: _471  and  _473
REMARK  196  A    between atoms: _473  and  _474
REMARK  197  A    between atoms: _473  and  _476
REMARK  198  A    between atoms: _476  and  _477
REMARK  199  A    between atoms: _482  and  _483
REMARK  200  A    between atoms: _485  and  _487
REMARK  201  A    between atoms: _487  and  _488
REMARK  202  A    between atoms: _487  and  _490
REMARK  203  A    between atoms: _490  and  _491
REMARK  204  A    between atoms: _494  and  _496
REMARK  205  A    between atoms: _496  and  _497
REMARK  206  A    between atoms: _496  and  _499
REMARK  207  A    between atoms: _499  and  _500
REMARK  208  A    between atoms: _500  and  _501
REMARK  209  A    between atoms: _501  and  _502
REMARK  210  A    between atoms: _511  and  _513
REMARK  211  A    between atoms: _513  and  _514
REMARK  212  A    between atoms: _513  and  _516
REMARK  213  A    between atoms: _516  and  _517
REMARK  214  A    between atoms: _520  and  _522
REMARK  215  A    between atoms: _522  and  _523
REMARK  216  A    between atoms: _522  and  _525
REMARK  217  A    between atoms: _525  and  _526
REMARK  218  A    between atoms: _529  and  _531
REMARK  219  A    between atoms: _531  and  _532
REMARK  220  A    between atoms: _531  and  _534
REMARK  221  A    between atoms: _534  and  _535
REMARK  222  A    between atoms: _535  and  _536
REMARK  223  A    between atoms: _536  and  _537
REMARK  224  A    between atoms: _537  and  _538
REMARK  225  A    between atoms: _542  and  _544
REMARK  226  A    between atoms: _544  and  _545
REMARK  227  A    between atoms: _547  and  _549
REMARK  228  A    between atoms: _549  and  _550
REMARK  229  A    between atoms: _549  and  _552
REMARK                            x       y       z     vdW  Elec       q    Type
REMARK                         _______ _______ _______ _____ _____    ______ ____
ROOT
ATOM      1  O   HOH     1       8.008  10.335  12.624  0.00  0.00    +0.000 OA
ENDROOT
TORSDOF 0
REMARK  Name = ../refined-set-2016/4oma/4oma_pocket.pdb
REMARK  229 active torsions:
REMARK  status: ('A' for Active; 'I' for Inactive)
REMARK    1  A    between atoms: _1  and  _3
REMARK    2  A    between atoms: _3  and  _4
REMARK    3  A    between atoms: _3  and  _6
REMARK    4  A    between atoms: _6  and  _7
REMARK    5  A    between atoms: _10  and  _12
REMARK    6  A    between atoms: _12  and  _13
REMARK    7  A    between atoms: _16  and  _18
REMARK    8  A    between atoms: _18  and  _19
REMARK    9  A    between atoms: _18  and  _21
REMARK   10  A    between atoms: _21  and  _22
REMARK   11  A    between atoms: _24  and  _26
REMARK   12  A    between atoms: _26  and  _27
REMARK   13  A    between atoms: _29  and  _31
REMARK   14  A    between atoms: _31  and  _32
REMARK   15  A    between atoms: _31  and  _34
REMARK   16  A    between atoms: _34  and  _35
REMARK   17  A    between atoms: _38  and  _40
REMARK   18  A    between atoms: _40  and  _41
REMARK   19  A    between atoms: _40  and  _43
REMARK   20  A    between atoms: _43  and  _44
REMARK   21  A    between atoms: _46  and  _48
REMARK   22  A    between atoms: _48  and  _49
REMARK   23  A    between atoms: _52  and  _54
REMARK   24  A    between atoms: _54  and  _55
REMARK   25  A    between atoms: _54  and  _57
REMARK   26  A    between atoms: _57  and  _58
REMARK   27  A    between atoms: _61  and  _63
REMARK   28  A    between atoms: _63  and  _64
REMARK   29  A    between atoms: _63  and  _66
REMARK   30  A    between atoms: _66  and  _67
REMARK   31  A    between atoms: _70  and  _72
REMARK   32  A    between atoms: _72  and  _73
REMARK   33  A    between atoms: _76  and  _78
REMARK   34  A    between atoms: _78  and  _79
REMARK   35  A    between atoms: _78  and  _81
REMARK   36  A    between atoms: _81  and  _82
REMARK   37  A    between atoms: _85  and  _87
REMARK   38  A    between atoms: _87  and  _88
REMARK   39  A    between atoms: _87  and  _90
REMARK   40  A    between atoms: _90  and  _91
REMARK   41  A    between atoms: _96  and  _97
REMARK   42  A    between atoms: _99  and  _101
REMARK   43  A    between atoms: _101  and  _102
REMARK   44  A    between atoms: _104  and  _106
REMARK   45  A    between atoms: _106  and  _107
REMARK   46  A    between atoms: _106  and  _109
REMARK   47  A    between atoms: _111  and  _113
REMARK   48  A    between atoms: _113  and  _114
REMARK   49  A    between atoms: _113  and  _116
REMARK   50  A    between atoms: _116  and  _117
REMARK   51  A    between atoms: _120  and  _122
REMARK   52  A    between atoms: _122  and  _123
REMARK   53  A    between atoms: _122  and  _125
REMARK   54  A    between atoms: _125  and  _126
REMARK   55  A    between atoms: _131  and  _132
REMARK   56  A    between atoms: _134  and  _136
REMARK   57  A    between atoms: _136  and  _137
REMARK   58  A    between atoms: _136  and  _139
REMARK   59  A    between atoms: _139  and  _140
REMARK   60  A    between atoms: _143  and  _145
REMARK   61  A    between atoms: _145  and  _146
REMARK   62  A    between atoms: _145  and  _148
REMARK   63  A    between atoms: _148  and  _149
REMARK   64  A    between atoms: _149  and  _150
REMARK   65  A    between atoms: _153  and  _155
REMARK   66  A    between atoms: _155  and  _156
REMARK   67  A    between atoms: _155  and  _158
REMARK   68  A    between atoms: _158  and  _159
REMARK   69  A    between atoms: _163  and  _164
REMARK   70  A    between atoms: _169  and  _171
REMARK   71  A    between atoms: _171  and  _172
REMARK   72  A    between atoms: _175  and  _177
REMARK   73  A    between atoms: _177  and  _178
REMARK   74  A    between atoms: _177  and  _180
REMARK   75  A    between atoms: _180  and  _181
REMARK   76  A    between atoms: _186  and  _188
REMARK   77  A    between atoms: _188  and  _189
REMARK   78  A    between atoms: _188  and  _191
REMARK   79  A    between atoms: _191  and  _192
REMARK   80  A    between atoms: _195  and  _197
REMARK   81  A    between atoms: _197  and  _198
REMARK   82  A    between atoms: _197  and  _200
REMARK   83  A    between atoms: _200  and  _201
REMARK   84  A    between atoms: _206  and  _208
REMARK   85  A    between atoms: _208  and  _209
REMARK   86  A    between atoms: _208  and  _211
REMARK   87  A    between atoms: _211  and  _212
REMARK   88  A    between atoms: _215  and  _217
REMARK   89  A    between atoms: _217  and  _218
REMARK   90  A    between atoms: _217  and  _220
REMARK   91  A    between atoms: _220  and  _221
REMARK   92  A    between atoms: _227  and  _229
REMARK   93  A    between atoms: _229  and  _230
REMARK   94  A    between atoms: _229  and  _232
REMARK   95  A    between atoms: _232  and  _233
REMARK   96  A    between atoms: _233  and  _234
REMARK   97  A    between atoms: _236  and  _238
REMARK   98  A    between atoms: _238  and  _239
REMARK   99  A    between atoms: _238  and  _241
REMARK  100  A    between atoms: _244  and  _246
REMARK  101  A    between atoms: _246  and  _247
REMARK  102  A    between atoms: _246  and  _249
REMARK  103  A    between atoms: _249  and  _250
REMARK  104  A    between atoms: _255  and  _257
REMARK  105  A    between atoms: _257  and  _258
REMARK  106  A    between atoms: _257  and  _260
REMARK  107  A    between atoms: _260  and  _261
REMARK  108  A    between atoms: _263  and  _265
REMARK  109  A    between atoms: _265  and  _266
REMARK  110  A    between atoms: _265  and  _268
REMARK  111  A    between atoms: _271  and  _273
REMARK  112  A    between atoms: _273  and  _274
REMARK  113  A    between atoms: _273  and  _276
REMARK  114  A    between atoms: _276  and  _277
REMARK  115  A    between atoms: _280  and  _282
REMARK  116  A    between atoms: _282  and  _283
REMARK  117  A    between atoms: _282  and  _285
REMARK  118  A    between atoms: _285  and  _286
REMARK  119  A    between atoms: _286  and  _287
REMARK  120  A    between atoms: _287  and  _288
REMARK  121  A    between atoms: _288  and  _289
REMARK  122  A    between atoms: _293  and  _295
REMARK  123  A    between atoms: _295  and  _296
REMARK  124  A    between atoms: _295  and  _298
REMARK  125  A    between atoms: _301  and  _303
REMARK  126  A    between atoms: _303  and  _304
REMARK  127  A    between atoms: _303  and  _306
REMARK  128  A    between atoms: _306  and  _307
REMARK  129  A    between atoms: _310  and  _312
REMARK  130  A    between atoms: _312  and  _313
REMARK  131  A    between atoms: _315  and  _317
REMARK  132  A    between atoms: _317  and  _318
REMARK  133  A    between atoms: _320  and  _322
REMARK  134  A    between atoms: _322  and  _323
REMARK  135  A    between atoms: _322  and  _325
REMARK  136  A    between atoms: _325  and  _326
REMARK  137  A    between atoms: _329  and  _331
REMARK  138  A    between atoms: _331  and  _332
REMARK  139  A    between atoms: _331  and  _334
REMARK  140  A    between atoms: _334  and  _335
REMARK  141  A    between atoms: _338  and  _340
REMARK  142  A    between atoms: _340  and  _341
REMARK  143  A    between atoms: _344  and  _346
REMARK  144  A    between atoms: _346  and  _347
REMARK  145  A    between atoms: _346  and  _349
REMARK  146  A    between atoms: _352  and  _354
REMARK  147  A    between atoms: _354  and  _355
REMARK  148  A    between atoms: _354  and  _357
REMARK  149  A    between atoms: _357  and  _358
REMARK  150  A    between atoms: _360  and  _362
REMARK  151  A    between atoms: _362  and  _363
REMARK  152  A    between atoms: _362  and  _365
REMARK  153  A    between atoms: _365  and  _366
REMARK  154  A    between atoms: _369  and  _371
REMARK  155  A    between atoms: _371  and  _372
REMARK  156  A    between atoms: _374  and  _376
REMARK  157  A    between atoms: _376  and  _377
REMARK  158  A    between atoms: _376  and  _379
REMARK  159  A    between atoms: _379  and  _380
REMARK  160  A    between atoms: _383  and  _385
REMARK  161  A    between atoms: _385  and  _386
REMARK  162  A    between atoms: _385  and  _388
REMARK  163  A    between atoms: _388  and  _389
REMARK  164  A    between atoms: _389  and  _390
REMARK  165  A    between atoms: _395  and  _397
REMARK  166  A    between atoms: _397  and  _398
REMARK  167  A    between atoms: _397  and  _400
REMARK  168  A    between atoms: _400  and  _401
REMARK  169  A    between atoms: _404  and  _406
REMARK  170  A    between atoms: _406  and  _407
REMARK  171  A    between atoms: _406  and  _409
REMARK  172  A    between atoms: _409  and  _410
REMARK  173  A    between atoms: _410  and  _411
REMARK  174  A    between atoms: _411  and  _412
REMARK  175  A    between atoms: _421  and  _423
REMARK  176  A    between atoms: _423  and  _424
REMARK  177  A    between atoms: _423  and  _426
REMARK  178  A    between atoms: _426  and  _427
REMARK  179  A    between atoms: _429  and  _431
REMARK  180  A    between atoms: _431  and  _432
REMARK  181  A    between atoms: _431  and  _434
REMARK  182  A    between atoms: _434  and  _435
REMARK  183  A    between atoms: _438  and  _440
REMARK  184  A    between atoms: _440  and  _441
REMARK  185  A    between atoms: _440  and  _443
REMARK  186  A    between atoms: _443  and  _444
REMARK  187  A    between atoms: _450  and  _452
REMARK  188  A    between atoms: _452  and  _453
REMARK  189  A    between atoms: _452  and  _455
REMARK  190  A    between atoms: _455  and  _456
REMARK  191  A    between atoms: _462  and  _464
REMARK  192  A    between atoms: _464  and  _465
REMARK  193  A    between atoms: _464  and  _467
REMARK  194  A    between atoms: _467  and  _468
REMARK  195  A    between atoms: _471  and  _473
REMARK  196  A    between atoms: _473  and  _474
REMARK  197  A    between atoms: _473  and  _476
REMARK  198  A    between atoms: _476  and  _477
REMARK  199  A    between atoms: _482  and  _483
REMARK  200  A    between atoms: _485  and  _487
REMARK  201  A    between atoms: _487  and  _488
REMARK  202  A    between atoms: _487  and  _490
REMARK  203  A    between atoms: _490  and  _491
REMARK  204  A    between atoms: _494  and  _496
REMARK  205  A    between atoms: _496  and  _497
REMARK  206  A    between atoms: _496  and  _499
REMARK  207  A    between atoms: _499  and  _500
REMARK  208  A    between atoms: _500  and  _501
REMARK  209  A    between atoms: _501  and  _502
REMARK  210  A    between atoms: _511  and  _513
REMARK  211  A    between atoms: _513  and  _514
REMARK  212  A    between atoms: _513  and  _516
REMARK  213  A    between atoms: _516  and  _517
REMARK  214  A    between atoms: _520  and  _522
REMARK  215  A    between atoms: _522  and  _523
REMARK  216  A    between atoms: _522  and  _525
REMARK  217  A    between atoms: _525  and  _526
REMARK  218  A    between atoms: _529  and  _531
REMARK  219  A    between atoms: _531  and  _532
REMARK  220  A    between atoms: _531  and  _534
REMARK  221  A    between atoms: _534  and  _535
REMARK  222  A    between atoms: _535  and  _536
REMARK  223  A    between atoms: _536  and  _537
REMARK  224  A    between atoms: _537  and  _538
REMARK  225  A    between atoms: _542  and  _544
REMARK  226  A    between atoms: _544  and  _545
REMARK  227  A    between atoms: _547  and  _549
REMARK  228  A    between atoms: _549  and  _550
REMARK  229  A    between atoms: _549  and  _552
REMARK                            x       y       z     vdW  Elec       q    Type
REMARK                         _______ _______ _______ _____ _____    ______ ____
ROOT
ATOM      1  O   HOH     1       5.440  21.599  20.082  0.00  0.00    +0.000 OA
ENDROOT
TORSDOF 0
REMARK  Name = ../refined-set-2016/4oma/4oma_pocket.pdb
REMARK  229 active torsions:
REMARK  status: ('A' for Active; 'I' for Inactive)
REMARK    1  A    between atoms: _1  and  _3
REMARK    2  A    between atoms: _3  and  _4
REMARK    3  A    between atoms: _3  and  _6
REMARK    4  A    between atoms: _6  and  _7
REMARK    5  A    between atoms: _10  and  _12
REMARK    6  A    between atoms: _12  and  _13
REMARK    7  A    between atoms: _16  and  _18
REMARK    8  A    between atoms: _18  and  _19
REMARK    9  A    between atoms: _18  and  _21
REMARK   10  A    between atoms: _21  and  _22
REMARK   11  A    between atoms: _24  and  _26
REMARK   12  A    between atoms: _26  and  _27
REMARK   13  A    between atoms: _29  and  _31
REMARK   14  A    between atoms: _31  and  _32
REMARK   15  A    between atoms: _31  and  _34
REMARK   16  A    between atoms: _34  and  _35
REMARK   17  A    between atoms: _38  and  _40
REMARK   18  A    between atoms: _40  and  _41
REMARK   19  A    between atoms: _40  and  _43
REMARK   20  A    between atoms: _43  and  _44
REMARK   21  A    between atoms: _46  and  _48
REMARK   22  A    between atoms: _48  and  _49
REMARK   23  A    between atoms: _52  and  _54
REMARK   24  A    between atoms: _54  and  _55
REMARK   25  A    between atoms: _54  and  _57
REMARK   26  A    between atoms: _57  and  _58
REMARK   27  A    between atoms: _61  and  _63
REMARK   28  A    between atoms: _63  and  _64
REMARK   29  A    between atoms: _63  and  _66
REMARK   30  A    between atoms: _66  and  _67
REMARK   31  A    between atoms: _70  and  _72
REMARK   32  A    between atoms: _72  and  _73
REMARK   33  A    between atoms: _76  and  _78
REMARK   34  A    between atoms: _78  and  _79
REMARK   35  A    between atoms: _78  and  _81
REMARK   36  A    between atoms: _81  and  _82
REMARK   37  A    between atoms: _85  and  _87
REMARK   38  A    between atoms: _87  and  _88
REMARK   39  A    between atoms: _87  and  _90
REMARK   40  A    between atoms: _90  and  _91
REMARK   41  A    between atoms: _96  and  _97
REMARK   42  A    between atoms: _99  and  _101
REMARK   43  A    between atoms: _101  and  _102
REMARK   44  A    between atoms: _104  and  _106
REMARK   45  A    between atoms: _106  and  _107
REMARK   46  A    between atoms: _106  and  _109
REMARK   47  A    between atoms: _111  and  _113
REMARK   48  A    between atoms: _113  and  _114
REMARK   49  A    between atoms: _113  and  _116
REMARK   50  A    between atoms: _116  and  _117
REMARK   51  A    between atoms: _120  and  _122
REMARK   52  A    between atoms: _122  and  _123
REMARK   53  A    between atoms: _122  and  _125
REMARK   54  A    between atoms: _125  and  _126
REMARK   55  A    between atoms: _131  and  _132
REMARK   56  A    between atoms: _134  and  _136
REMARK   57  A    between atoms: _136  and  _137
REMARK   58  A    between atoms: _136  and  _139
REMARK   59  A    between atoms: _139  and  _140
REMARK   60  A    between atoms: _143  and  _145
REMARK   61  A    between atoms: _145  and  _146
REMARK   62  A    between atoms: _145  and  _148
REMARK   63  A    between atoms: _148  and  _149
REMARK   64  A    between atoms: _149  and  _150
REMARK   65  A    between atoms: _153  and  _155
REMARK   66  A    between atoms: _155  and  _156
REMARK   67  A    between atoms: _155  and  _158
REMARK   68  A    between atoms: _158  and  _159
REMARK   69  A    between atoms: _163  and  _164
REMARK   70  A    between atoms: _169  and  _171
REMARK   71  A    between atoms: _171  and  _172
REMARK   72  A    between atoms: _175  and  _177
REMARK   73  A    between atoms: _177  and  _178
REMARK   74  A    between atoms: _177  and  _180
REMARK   75  A    between atoms: _180  and  _181
REMARK   76  A    between atoms: _186  and  _188
REMARK   77  A    between atoms: _188  and  _189
REMARK   78  A    between atoms: _188  and  _191
REMARK   79  A    between atoms: _191  and  _192
REMARK   80  A    between atoms: _195  and  _197
REMARK   81  A    between atoms: _197  and  _198
REMARK   82  A    between atoms: _197  and  _200
REMARK   83  A    between atoms: _200  and  _201
REMARK   84  A    between atoms: _206  and  _208
REMARK   85  A    between atoms: _208  and  _209
REMARK   86  A    between atoms: _208  and  _211
REMARK   87  A    between atoms: _211  and  _212
REMARK   88  A    between atoms: _215  and  _217
REMARK   89  A    between atoms: _217  and  _218
REMARK   90  A    between atoms: _217  and  _220
REMARK   91  A    between atoms: _220  and  _221
REMARK   92  A    between atoms: _227  and  _229
REMARK   93  A    between atoms: _229  and  _230
REMARK   94  A    between atoms: _229  and  _232
REMARK   95  A    between atoms: _232  and  _233
REMARK   96  A    between atoms: _233  and  _234
REMARK   97  A    between atoms: _236  and  _238
REMARK   98  A    between atoms: _238  and  _239
REMARK   99  A    between atoms: _238  and  _241
REMARK  100  A    between atoms: _244  and  _246
REMARK  101  A    between atoms: _246  and  _247
REMARK  102  A    between atoms: _246  and  _249
REMARK  103  A    between atoms: _249  and  _250
REMARK  104  A    between atoms: _255  and  _257
REMARK  105  A    between atoms: _257  and  _258
REMARK  106  A    between atoms: _257  and  _260
REMARK  107  A    between atoms: _260  and  _261
REMARK  108  A    between atoms: _263  and  _265
REMARK  109  A    between atoms: _265  and  _266
REMARK  110  A    between atoms: _265  and  _268
REMARK  111  A    between atoms: _271  and  _273
REMARK  112  A    between atoms: _273  and  _274
REMARK  113  A    between atoms: _273  and  _276
REMARK  114  A    between atoms: _276  and  _277
REMARK  115  A    between atoms: _280  and  _282
REMARK  116  A    between atoms: _282  and  _283
REMARK  117  A    between atoms: _282  and  _285
REMARK  118  A    between atoms: _285  and  _286
REMARK  119  A    between atoms: _286  and  _287
REMARK  120  A    between atoms: _287  and  _288
REMARK  121  A    between atoms: _288  and  _289
REMARK  122  A    between atoms: _293  and  _295
REMARK  123  A    between atoms: _295  and  _296
REMARK  124  A    between atoms: _295  and  _298
REMARK  125  A    between atoms: _301  and  _303
REMARK  126  A    between atoms: _303  and  _304
REMARK  127  A    between atoms: _303  and  _306
REMARK  128  A    between atoms: _306  and  _307
REMARK  129  A    between atoms: _310  and  _312
REMARK  130  A    between atoms: _312  and  _313
REMARK  131  A    between atoms: _315  and  _317
REMARK  132  A    between atoms: _317  and  _318
REMARK  133  A    between atoms: _320  and  _322
REMARK  134  A    between atoms: _322  and  _323
REMARK  135  A    between atoms: _322  and  _325
REMARK  136  A    between atoms: _325  and  _326
REMARK  137  A    between atoms: _329  and  _331
REMARK  138  A    between atoms: _331  and  _332
REMARK  139  A    between atoms: _331  and  _334
REMARK  140  A    between atoms: _334  and  _335
REMARK  141  A    between atoms: _338  and  _340
REMARK  142  A    between atoms: _340  and  _341
REMARK  143  A    between atoms: _344  and  _346
REMARK  144  A    between atoms: _346  and  _347
REMARK  145  A    between atoms: _346  and  _349
REMARK  146  A    between atoms: _352  and  _354
REMARK  147  A    between atoms: _354  and  _355
REMARK  148  A    between atoms: _354  and  _357
REMARK  149  A    between atoms: _357  and  _358
REMARK  150  A    between atoms: _360  and  _362
REMARK  151  A    between atoms: _362  and  _363
REMARK  152  A    between atoms: _362  and  _365
REMARK  153  A    between atoms: _365  and  _366
REMARK  154  A    between atoms: _369  and  _371
REMARK  155  A    between atoms: _371  and  _372
REMARK  156  A    between atoms: _374  and  _376
REMARK  157  A    between atoms: _376  and  _377
REMARK  158  A    between atoms: _376  and  _379
REMARK  159  A    between atoms: _379  and  _380
REMARK  160  A    between atoms: _383  and  _385
REMARK  161  A    between atoms: _385  and  _386
REMARK  162  A    between atoms: _385  and  _388
REMARK  163  A    between atoms: _388  and  _389
REMARK  164  A    between atoms: _389  and  _390
REMARK  165  A    between atoms: _395  and  _397
REMARK  166  A    between atoms: _397  and  _398
REMARK  167  A    between atoms: _397  and  _400
REMARK  168  A    between atoms: _400  and  _401
REMARK  169  A    between atoms: _404  and  _406
REMARK  170  A    between atoms: _406  and  _407
REMARK  171  A    between atoms: _406  and  _409
REMARK  172  A    between atoms: _409  and  _410
REMARK  173  A    between atoms: _410  and  _411
REMARK  174  A    between atoms: _411  and  _412
REMARK  175  A    between atoms: _421  and  _423
REMARK  176  A    between atoms: _423  and  _424
REMARK  177  A    between atoms: _423  and  _426
REMARK  178  A    between atoms: _426  and  _427
REMARK  179  A    between atoms: _429  and  _431
REMARK  180  A    between atoms: _431  and  _432
REMARK  181  A    between atoms: _431  and  _434
REMARK  182  A    between atoms: _434  and  _435
REMARK  183  A    between atoms: _438  and  _440
REMARK  184  A    between atoms: _440  and  _441
REMARK  185  A    between atoms: _440  and  _443
REMARK  186  A    between atoms: _443  and  _444
REMARK  187  A    between atoms: _450  and  _452
REMARK  188  A    between atoms: _452  and  _453
REMARK  189  A    between atoms: _452  and  _455
REMARK  190  A    between atoms: _455  and  _456
REMARK  191  A    between atoms: _462  and  _464
REMARK  192  A    between atoms: _464  and  _465
REMARK  193  A    between atoms: _464  and  _467
REMARK  194  A    between atoms: _467  and  _468
REMARK  195  A    between atoms: _471  and  _473
REMARK  196  A    between atoms: _473  and  _474
REMARK  197  A    between atoms: _473  and  _476
REMARK  198  A    between atoms: _476  and  _477
REMARK  199  A    between atoms: _482  and  _483
REMARK  200  A    between atoms: _485  and  _487
REMARK  201  A    between atoms: _487  and  _488
REMARK  202  A    between atoms: _487  and  _490
REMARK  203  A    between atoms: _490  and  _491
REMARK  204  A    between atoms: _494  and  _496
REMARK  205  A    between atoms: _496  and  _497
REMARK  206  A    between atoms: _496  and  _499
REMARK  207  A    between atoms: _499  and  _500
REMARK  208  A    between atoms: _500  and  _501
REMARK  209  A    between atoms: _501  and  _502
REMARK  210  A    between atoms: _511  and  _513
REMARK  211  A    between atoms: _513  and  _514
REMARK  212  A    between atoms: _513  and  _516
REMARK  213  A    between atoms: _516  and  _517
REMARK  214  A    between atoms: _520  and  _522
REMARK  215  A    between atoms: _522  and  _523
REMARK  216  A    between atoms: _522  and  _525
REMARK  217  A    between atoms: _525  and  _526
REMARK  218  A    between atoms: _529  and  _531
REMARK  219  A    between atoms: _531  and  _532
REMARK  220  A    between atoms: _531  and  _534
REMARK  221  A    between atoms: _534  and  _535
REMARK  222  A    between atoms: _535  and  _536
REMARK  223  A    between atoms: _536  and  _537
REMARK  224  A    between atoms: _537  and  _538
REMARK  225  A    between atoms: _542  and  _544
REMARK  226  A    between atoms: _544  and  _545
REMARK  227  A    between atoms: _547  and  _549
REMARK  228  A    between atoms: _549  and  _550
REMARK  229  A    between atoms: _549  and  _552
REMARK                            x       y       z     vdW  Elec       q    Type
REMARK                         _______ _______ _______ _____ _____    ______ ____
ROOT
ATOM      1  O   HOH     1      14.225  14.240  19.394  0.00  0.00    +0.000 OA
ENDROOT
TORSDOF 0
REMARK  Name = ../refined-set-2016/4oma/4oma_pocket.pdb
REMARK  229 active torsions:
REMARK  status: ('A' for Active; 'I' for Inactive)
REMARK    1  A    between atoms: _1  and  _3
REMARK    2  A    between atoms: _3  and  _4
REMARK    3  A    between atoms: _3  and  _6
REMARK    4  A    between atoms: _6  and  _7
REMARK    5  A    between atoms: _10  and  _12
REMARK    6  A    between atoms: _12  and  _13
REMARK    7  A    between atoms: _16  and  _18
REMARK    8  A    between atoms: _18  and  _19
REMARK    9  A    between atoms: _18  and  _21
REMARK   10  A    between atoms: _21  and  _22
REMARK   11  A    between atoms: _24  and  _26
REMARK   12  A    between atoms: _26  and  _27
REMARK   13  A    between atoms: _29  and  _31
REMARK   14  A    between atoms: _31  and  _32
REMARK   15  A    between atoms: _31  and  _34
REMARK   16  A    between atoms: _34  and  _35
REMARK   17  A    between atoms: _38  and  _40
REMARK   18  A    between atoms: _40  and  _41
REMARK   19  A    between atoms: _40  and  _43
REMARK   20  A    between atoms: _43  and  _44
REMARK   21  A    between atoms: _46  and  _48
REMARK   22  A    between atoms: _48  and  _49
REMARK   23  A    between atoms: _52  and  _54
REMARK   24  A    between atoms: _54  and  _55
REMARK   25  A    between atoms: _54  and  _57
REMARK   26  A    between atoms: _57  and  _58
REMARK   27  A    between atoms: _61  and  _63
REMARK   28  A    between atoms: _63  and  _64
REMARK   29  A    between atoms: _63  and  _66
REMARK   30  A    between atoms: _66  and  _67
REMARK   31  A    between atoms: _70  and  _72
REMARK   32  A    between atoms: _72  and  _73
REMARK   33  A    between atoms: _76  and  _78
REMARK   34  A    between atoms: _78  and  _79
REMARK   35  A    between atoms: _78  and  _81
REMARK   36  A    between atoms: _81  and  _82
REMARK   37  A    between atoms: _85  and  _87
REMARK   38  A    between atoms: _87  and  _88
REMARK   39  A    between atoms: _87  and  _90
REMARK   40  A    between atoms: _90  and  _91
REMARK   41  A    between atoms: _96  and  _97
REMARK   42  A    between atoms: _99  and  _101
REMARK   43  A    between atoms: _101  and  _102
REMARK   44  A    between atoms: _104  and  _106
REMARK   45  A    between atoms: _106  and  _107
REMARK   46  A    between atoms: _106  and  _109
REMARK   47  A    between atoms: _111  and  _113
REMARK   48  A    between atoms: _113  and  _114
REMARK   49  A    between atoms: _113  and  _116
REMARK   50  A    between atoms: _116  and  _117
REMARK   51  A    between atoms: _120  and  _122
REMARK   52  A    between atoms: _122  and  _123
REMARK   53  A    between atoms: _122  and  _125
REMARK   54  A    between atoms: _125  and  _126
REMARK   55  A    between atoms: _131  and  _132
REMARK   56  A    between atoms: _134  and  _136
REMARK   57  A    between atoms: _136  and  _137
REMARK   58  A    between atoms: _136  and  _139
REMARK   59  A    between atoms: _139  and  _140
REMARK   60  A    between atoms: _143  and  _145
REMARK   61  A    between atoms: _145  and  _146
REMARK   62  A    between atoms: _145  and  _148
REMARK   63  A    between atoms: _148  and  _149
REMARK   64  A    between atoms: _149  and  _150
REMARK   65  A    between atoms: _153  and  _155
REMARK   66  A    between atoms: _155  and  _156
REMARK   67  A    between atoms: _155  and  _158
REMARK   68  A    between atoms: _158  and  _159
REMARK   69  A    between atoms: _163  and  _164
REMARK   70  A    between atoms: _169  and  _171
REMARK   71  A    between atoms: _171  and  _172
REMARK   72  A    between atoms: _175  and  _177
REMARK   73  A    between atoms: _177  and  _178
REMARK   74  A    between atoms: _177  and  _180
REMARK   75  A    between atoms: _180  and  _181
REMARK   76  A    between atoms: _186  and  _188
REMARK   77  A    between atoms: _188  and  _189
REMARK   78  A    between atoms: _188  and  _191
REMARK   79  A    between atoms: _191  and  _192
REMARK   80  A    between atoms: _195  and  _197
REMARK   81  A    between atoms: _197  and  _198
REMARK   82  A    between atoms: _197  and  _200
REMARK   83  A    between atoms: _200  and  _201
REMARK   84  A    between atoms: _206  and  _208
REMARK   85  A    between atoms: _208  and  _209
REMARK   86  A    between atoms: _208  and  _211
REMARK   87  A    between atoms: _211  and  _212
REMARK   88  A    between atoms: _215  and  _217
REMARK   89  A    between atoms: _217  and  _218
REMARK   90  A    between atoms: _217  and  _220
REMARK   91  A    between atoms: _220  and  _221
REMARK   92  A    between atoms: _227  and  _229
REMARK   93  A    between atoms: _229  and  _230
REMARK   94  A    between atoms: _229  and  _232
REMARK   95  A    between atoms: _232  and  _233
REMARK   96  A    between atoms: _233  and  _234
REMARK   97  A    between atoms: _236  and  _238
REMARK   98  A    between atoms: _238  and  _239
REMARK   99  A    between atoms: _238  and  _241
REMARK  100  A    between atoms: _244  and  _246
REMARK  101  A    between atoms: _246  and  _247
REMARK  102  A    between atoms: _246  and  _249
REMARK  103  A    between atoms: _249  and  _250
REMARK  104  A    between atoms: _255  and  _257
REMARK  105  A    between atoms: _257  and  _258
REMARK  106  A    between atoms: _257  and  _260
REMARK  107  A    between atoms: _260  and  _261
REMARK  108  A    between atoms: _263  and  _265
REMARK  109  A    between atoms: _265  and  _266
REMARK  110  A    between atoms: _265  and  _268
REMARK  111  A    between atoms: _271  and  _273
REMARK  112  A    between atoms: _273  and  _274
REMARK  113  A    between atoms: _273  and  _276
REMARK  114  A    between atoms: _276  and  _277
REMARK  115  A    between atoms: _280  and  _282
REMARK  116  A    between atoms: _282  and  _283
REMARK  117  A    between atoms: _282  and  _285
REMARK  118  A    between atoms: _285  and  _286
REMARK  119  A    between atoms: _286  and  _287
REMARK  120  A    between atoms: _287  and  _288
REMARK  121  A    between atoms: _288  and  _289
REMARK  122  A    between atoms: _293  and  _295
REMARK  123  A    between atoms: _295  and  _296
REMARK  124  A    between atoms: _295  and  _298
REMARK  125  A    between atoms: _301  and  _303
REMARK  126  A    between atoms: _303  and  _304
REMARK  127  A    between atoms: _303  and  _306
REMARK  128  A    between atoms: _306  and  _307
REMARK  129  A    between atoms: _310  and  _312
REMARK  130  A    between atoms: _312  and  _313
REMARK  131  A    between atoms: _315  and  _317
REMARK  132  A    between atoms: _317  and  _318
REMARK  133  A    between atoms: _320  and  _322
REMARK  134  A    between atoms: _322  and  _323
REMARK  135  A    between atoms: _322  and  _325
REMARK  136  A    between atoms: _325  and  _326
REMARK  137  A    between atoms: _329  and  _331
REMARK  138  A    between atoms: _331  and  _332
REMARK  139  A    between atoms: _331  and  _334
REMARK  140  A    between atoms: _334  and  _335
REMARK  141  A    between atoms: _338  and  _340
REMARK  142  A    between atoms: _340  and  _341
REMARK  143  A    between atoms: _344  and  _346
REMARK  144  A    between atoms: _346  and  _347
REMARK  145  A    between atoms: _346  and  _349
REMARK  146  A    between atoms: _352  and  _354
REMARK  147  A    between atoms: _354  and  _355
REMARK  148  A    between atoms: _354  and  _357
REMARK  149  A    between atoms: _357  and  _358
REMARK  150  A    between atoms: _360  and  _362
REMARK  151  A    between atoms: _362  and  _363
REMARK  152  A    between atoms: _362  and  _365
REMARK  153  A    between atoms: _365  and  _366
REMARK  154  A    between atoms: _369  and  _371
REMARK  155  A    between atoms: _371  and  _372
REMARK  156  A    between atoms: _374  and  _376
REMARK  157  A    between atoms: _376  and  _377
REMARK  158  A    between atoms: _376  and  _379
REMARK  159  A    between atoms: _379  and  _380
REMARK  160  A    between atoms: _383  and  _385
REMARK  161  A    between atoms: _385  and  _386
REMARK  162  A    between atoms: _385  and  _388
REMARK  163  A    between atoms: _388  and  _389
REMARK  164  A    between atoms: _389  and  _390
REMARK  165  A    between atoms: _395  and  _397
REMARK  166  A    between atoms: _397  and  _398
REMARK  167  A    between atoms: _397  and  _400
REMARK  168  A    between atoms: _400  and  _401
REMARK  169  A    between atoms: _404  and  _406
REMARK  170  A    between atoms: _406  and  _407
REMARK  171  A    between atoms: _406  and  _409
REMARK  172  A    between atoms: _409  and  _410
REMARK  173  A    between atoms: _410  and  _411
REMARK  174  A    between atoms: _411  and  _412
REMARK  175  A    between atoms: _421  and  _423
REMARK  176  A    between atoms: _423  and  _424
REMARK  177  A    between atoms: _423  and  _426
REMARK  178  A    between atoms: _426  and  _427
REMARK  179  A    between atoms: _429  and  _431
REMARK  180  A    between atoms: _431  and  _432
REMARK  181  A    between atoms: _431  and  _434
REMARK  182  A    between atoms: _434  and  _435
REMARK  183  A    between atoms: _438  and  _440
REMARK  184  A    between atoms: _440  and  _441
REMARK  185  A    between atoms: _440  and  _443
REMARK  186  A    between atoms: _443  and  _444
REMARK  187  A    between atoms: _450  and  _452
REMARK  188  A    between atoms: _452  and  _453
REMARK  189  A    between atoms: _452  and  _455
REMARK  190  A    between atoms: _455  and  _456
REMARK  191  A    between atoms: _462  and  _464
REMARK  192  A    between atoms: _464  and  _465
REMARK  193  A    between atoms: _464  and  _467
REMARK  194  A    between atoms: _467  and  _468
REMARK  195  A    between atoms: _471  and  _473
REMARK  196  A    between atoms: _473  and  _474
REMARK  197  A    between atoms: _473  and  _476
REMARK  198  A    between atoms: _476  and  _477
REMARK  199  A    between atoms: _482  and  _483
REMARK  200  A    between atoms: _485  and  _487
REMARK  201  A    between atoms: _487  and  _488
REMARK  202  A    between atoms: _487  and  _490
REMARK  203  A    between atoms: _490  and  _491
REMARK  204  A    between atoms: _494  and  _496
REMARK  205  A    between atoms: _496  and  _497
REMARK  206  A    between atoms: _496  and  _499
REMARK  207  A    between atoms: _499  and  _500
REMARK  208  A    between atoms: _500  and  _501
REMARK  209  A    between atoms: _501  and  _502
REMARK  210  A    between atoms: _511  and  _513
REMARK  211  A    between atoms: _513  and  _514
REMARK  212  A    between atoms: _513  and  _516
REMARK  213  A    between atoms: _516  and  _517
REMARK  214  A    between atoms: _520  and  _522
REMARK  215  A    between atoms: _522  and  _523
REMARK  216  A    between atoms: _522  and  _525
REMARK  217  A    between atoms: _525  and  _526
REMARK  218  A    between atoms: _529  and  _531
REMARK  219  A    between atoms: _531  and  _532
REMARK  220  A    between atoms: _531  and  _534
REMARK  221  A    between atoms: _534  and  _535
REMARK  222  A    between atoms: _535  and  _536
REMARK  223  A    between atoms: _536  and  _537
REMARK  224  A    between atoms: _537  and  _538
REMARK  225  A    between atoms: _542  and  _544
REMARK  226  A    between atoms: _544  and  _545
REMARK  227  A    between atoms: _547  and  _549
REMARK  228  A    between atoms: _549  and  _550
REMARK  229  A    between atoms: _549  and  _552
REMARK                            x       y       z     vdW  Elec       q    Type
REMARK                         _______ _______ _______ _____ _____    ______ ____
ROOT
ATOM      1  O   HOH     1      13.742  18.649  14.484  0.00  0.00    +0.000 OA
ENDROOT
TORSDOF 0
REMARK  Name = ../refined-set-2016/4oma/4oma_pocket.pdb
REMARK  229 active torsions:
REMARK  status: ('A' for Active; 'I' for Inactive)
REMARK    1  A    between atoms: _1  and  _3
REMARK    2  A    between atoms: _3  and  _4
REMARK    3  A    between atoms: _3  and  _6
REMARK    4  A    between atoms: _6  and  _7
REMARK    5  A    between atoms: _10  and  _12
REMARK    6  A    between atoms: _12  and  _13
REMARK    7  A    between atoms: _16  and  _18
REMARK    8  A    between atoms: _18  and  _19
REMARK    9  A    between atoms: _18  and  _21
REMARK   10  A    between atoms: _21  and  _22
REMARK   11  A    between atoms: _24  and  _26
REMARK   12  A    between atoms: _26  and  _27
REMARK   13  A    between atoms: _29  and  _31
REMARK   14  A    between atoms: _31  and  _32
REMARK   15  A    between atoms: _31  and  _34
REMARK   16  A    between atoms: _34  and  _35
REMARK   17  A    between atoms: _38  and  _40
REMARK   18  A    between atoms: _40  and  _41
REMARK   19  A    between atoms: _40  and  _43
REMARK   20  A    between atoms: _43  and  _44
REMARK   21  A    between atoms: _46  and  _48
REMARK   22  A    between atoms: _48  and  _49
REMARK   23  A    between atoms: _52  and  _54
REMARK   24  A    between atoms: _54  and  _55
REMARK   25  A    between atoms: _54  and  _57
REMARK   26  A    between atoms: _57  and  _58
REMARK   27  A    between atoms: _61  and  _63
REMARK   28  A    between atoms: _63  and  _64
REMARK   29  A    between atoms: _63  and  _66
REMARK   30  A    between atoms: _66  and  _67
REMARK   31  A    between atoms: _70  and  _72
REMARK   32  A    between atoms: _72  and  _73
REMARK   33  A    between atoms: _76  and  _78
REMARK   34  A    between atoms: _78  and  _79
REMARK   35  A    between atoms: _78  and  _81
REMARK   36  A    between atoms: _81  and  _82
REMARK   37  A    between atoms: _85  and  _87
REMARK   38  A    between atoms: _87  and  _88
REMARK   39  A    between atoms: _87  and  _90
REMARK   40  A    between atoms: _90  and  _91
REMARK   41  A    between atoms: _96  and  _97
REMARK   42  A    between atoms: _99  and  _101
REMARK   43  A    between atoms: _101  and  _102
REMARK   44  A    between atoms: _104  and  _106
REMARK   45  A    between atoms: _106  and  _107
REMARK   46  A    between atoms: _106  and  _109
REMARK   47  A    between atoms: _111  and  _113
REMARK   48  A    between atoms: _113  and  _114
REMARK   49  A    between atoms: _113  and  _116
REMARK   50  A    between atoms: _116  and  _117
REMARK   51  A    between atoms: _120  and  _122
REMARK   52  A    between atoms: _122  and  _123
REMARK   53  A    between atoms: _122  and  _125
REMARK   54  A    between atoms: _125  and  _126
REMARK   55  A    between atoms: _131  and  _132
REMARK   56  A    between atoms: _134  and  _136
REMARK   57  A    between atoms: _136  and  _137
REMARK   58  A    between atoms: _136  and  _139
REMARK   59  A    between atoms: _139  and  _140
REMARK   60  A    between atoms: _143  and  _145
REMARK   61  A    between atoms: _145  and  _146
REMARK   62  A    between atoms: _145  and  _148
REMARK   63  A    between atoms: _148  and  _149
REMARK   64  A    between atoms: _149  and  _150
REMARK   65  A    between atoms: _153  and  _155
REMARK   66  A    between atoms: _155  and  _156
REMARK   67  A    between atoms: _155  and  _158
REMARK   68  A    between atoms: _158  and  _159
REMARK   69  A    between atoms: _163  and  _164
REMARK   70  A    between atoms: _169  and  _171
REMARK   71  A    between atoms: _171  and  _172
REMARK   72  A    between atoms: _175  and  _177
REMARK   73  A    between atoms: _177  and  _178
REMARK   74  A    between atoms: _177  and  _180
REMARK   75  A    between atoms: _180  and  _181
REMARK   76  A    between atoms: _186  and  _188
REMARK   77  A    between atoms: _188  and  _189
REMARK   78  A    between atoms: _188  and  _191
REMARK   79  A    between atoms: _191  and  _192
REMARK   80  A    between atoms: _195  and  _197
REMARK   81  A    between atoms: _197  and  _198
REMARK   82  A    between atoms: _197  and  _200
REMARK   83  A    between atoms: _200  and  _201
REMARK   84  A    between atoms: _206  and  _208
REMARK   85  A    between atoms: _208  and  _209
REMARK   86  A    between atoms: _208  and  _211
REMARK   87  A    between atoms: _211  and  _212
REMARK   88  A    between atoms: _215  and  _217
REMARK   89  A    between atoms: _217  and  _218
REMARK   90  A    between atoms: _217  and  _220
REMARK   91  A    between atoms: _220  and  _221
REMARK   92  A    between atoms: _227  and  _229
REMARK   93  A    between atoms: _229  and  _230
REMARK   94  A    between atoms: _229  and  _232
REMARK   95  A    between atoms: _232  and  _233
REMARK   96  A    between atoms: _233  and  _234
REMARK   97  A    between atoms: _236  and  _238
REMARK   98  A    between atoms: _238  and  _239
REMARK   99  A    between atoms: _238  and  _241
REMARK  100  A    between atoms: _244  and  _246
REMARK  101  A    between atoms: _246  and  _247
REMARK  102  A    between atoms: _246  and  _249
REMARK  103  A    between atoms: _249  and  _250
REMARK  104  A    between atoms: _255  and  _257
REMARK  105  A    between atoms: _257  and  _258
REMARK  106  A    between atoms: _257  and  _260
REMARK  107  A    between atoms: _260  and  _261
REMARK  108  A    between atoms: _263  and  _265
REMARK  109  A    between atoms: _265  and  _266
REMARK  110  A    between atoms: _265  and  _268
REMARK  111  A    between atoms: _271  and  _273
REMARK  112  A    between atoms: _273  and  _274
REMARK  113  A    between atoms: _273  and  _276
REMARK  114  A    between atoms: _276  and  _277
REMARK  115  A    between atoms: _280  and  _282
REMARK  116  A    between atoms: _282  and  _283
REMARK  117  A    between atoms: _282  and  _285
REMARK  118  A    between atoms: _285  and  _286
REMARK  119  A    between atoms: _286  and  _287
REMARK  120  A    between atoms: _287  and  _288
REMARK  121  A    between atoms: _288  and  _289
REMARK  122  A    between atoms: _293  and  _295
REMARK  123  A    between atoms: _295  and  _296
REMARK  124  A    between atoms: _295  and  _298
REMARK  125  A    between atoms: _301  and  _303
REMARK  126  A    between atoms: _303  and  _304
REMARK  127  A    between atoms: _303  and  _306
REMARK  128  A    between atoms: _306  and  _307
REMARK  129  A    between atoms: _310  and  _312
REMARK  130  A    between atoms: _312  and  _313
REMARK  131  A    between atoms: _315  and  _317
REMARK  132  A    between atoms: _317  and  _318
REMARK  133  A    between atoms: _320  and  _322
REMARK  134  A    between atoms: _322  and  _323
REMARK  135  A    between atoms: _322  and  _325
REMARK  136  A    between atoms: _325  and  _326
REMARK  137  A    between atoms: _329  and  _331
REMARK  138  A    between atoms: _331  and  _332
REMARK  139  A    between atoms: _331  and  _334
REMARK  140  A    between atoms: _334  and  _335
REMARK  141  A    between atoms: _338  and  _340
REMARK  142  A    between atoms: _340  and  _341
REMARK  143  A    between atoms: _344  and  _346
REMARK  144  A    between atoms: _346  and  _347
REMARK  145  A    between atoms: _346  and  _349
REMARK  146  A    between atoms: _352  and  _354
REMARK  147  A    between atoms: _354  and  _355
REMARK  148  A    between atoms: _354  and  _357
REMARK  149  A    between atoms: _357  and  _358
REMARK  150  A    between atoms: _360  and  _362
REMARK  151  A    between atoms: _362  and  _363
REMARK  152  A    between atoms: _362  and  _365
REMARK  153  A    between atoms: _365  and  _366
REMARK  154  A    between atoms: _369  and  _371
REMARK  155  A    between atoms: _371  and  _372
REMARK  156  A    between atoms: _374  and  _376
REMARK  157  A    between atoms: _376  and  _377
REMARK  158  A    between atoms: _376  and  _379
REMARK  159  A    between atoms: _379  and  _380
REMARK  160  A    between atoms: _383  and  _385
REMARK  161  A    between atoms: _385  and  _386
REMARK  162  A    between atoms: _385  and  _388
REMARK  163  A    between atoms: _388  and  _389
REMARK  164  A    between atoms: _389  and  _390
REMARK  165  A    between atoms: _395  and  _397
REMARK  166  A    between atoms: _397  and  _398
REMARK  167  A    between atoms: _397  and  _400
REMARK  168  A    between atoms: _400  and  _401
REMARK  169  A    between atoms: _404  and  _406
REMARK  170  A    between atoms: _406  and  _407
REMARK  171  A    between atoms: _406  and  _409
REMARK  172  A    between atoms: _409  and  _410
REMARK  173  A    between atoms: _410  and  _411
REMARK  174  A    between atoms: _411  and  _412
REMARK  175  A    between atoms: _421  and  _423
REMARK  176  A    between atoms: _423  and  _424
REMARK  177  A    between atoms: _423  and  _426
REMARK  178  A    between atoms: _426  and  _427
REMARK  179  A    between atoms: _429  and  _431
REMARK  180  A    between atoms: _431  and  _432
REMARK  181  A    between atoms: _431  and  _434
REMARK  182  A    between atoms: _434  and  _435
REMARK  183  A    between atoms: _438  and  _440
REMARK  184  A    between atoms: _440  and  _441
REMARK  185  A    between atoms: _440  and  _443
REMARK  186  A    between atoms: _443  and  _444
REMARK  187  A    between atoms: _450  and  _452
REMARK  188  A    between atoms: _452  and  _453
REMARK  189  A    between atoms: _452  and  _455
REMARK  190  A    between atoms: _455  and  _456
REMARK  191  A    between atoms: _462  and  _464
REMARK  192  A    between atoms: _464  and  _465
REMARK  193  A    between atoms: _464  and  _467
REMARK  194  A    between atoms: _467  and  _468
REMARK  195  A    between atoms: _471  and  _473
REMARK  196  A    between atoms: _473  and  _474
REMARK  197  A    between atoms: _473  and  _476
REMARK  198  A    between atoms: _476  and  _477
REMARK  199  A    between atoms: _482  and  _483
REMARK  200  A    between atoms: _485  and  _487
REMARK  201  A    between atoms: _487  and  _488
REMARK  202  A    between atoms: _487  and  _490
REMARK  203  A    between atoms: _490  and  _491
REMARK  204  A    between atoms: _494  and  _496
REMARK  205  A    between atoms: _496  and  _497
REMARK  206  A    between atoms: _496  and  _499
REMARK  207  A    between atoms: _499  and  _500
REMARK  208  A    between atoms: _500  and  _501
REMARK  209  A    between atoms: _501  and  _502
REMARK  210  A    between atoms: _511  and  _513
REMARK  211  A    between atoms: _513  and  _514
REMARK  212  A    between atoms: _513  and  _516
REMARK  213  A    between atoms: _516  and  _517
REMARK  214  A    between atoms: _520  and  _522
REMARK  215  A    between atoms: _522  and  _523
REMARK  216  A    between atoms: _522  and  _525
REMARK  217  A    between atoms: _525  and  _526
REMARK  218  A    between atoms: _529  and  _531
REMARK  219  A    between atoms: _531  and  _532
REMARK  220  A    between atoms: _531  and  _534
REMARK  221  A    between atoms: _534  and  _535
REMARK  222  A    between atoms: _535  and  _536
REMARK  223  A    between atoms: _536  and  _537
REMARK  224  A    between atoms: _537  and  _538
REMARK  225  A    between atoms: _542  and  _544
REMARK  226  A    between atoms: _544  and  _545
REMARK  227  A    between atoms: _547  and  _549
REMARK  228  A    between atoms: _549  and  _550
REMARK  229  A    between atoms: _549  and  _552
REMARK                            x       y       z     vdW  Elec       q    Type
REMARK                         _______ _______ _______ _____ _____    ______ ____
ROOT
ATOM      1  O   HOH     1       1.402  19.665  21.913  0.00  0.00    +0.000 OA
ENDROOT
TORSDOF 0
REMARK  Name = ../refined-set-2016/4oma/4oma_pocket.pdb
REMARK  229 active torsions:
REMARK  status: ('A' for Active; 'I' for Inactive)
REMARK    1  A    between atoms: _1  and  _3
REMARK    2  A    between atoms: _3  and  _4
REMARK    3  A    between atoms: _3  and  _6
REMARK    4  A    between atoms: _6  and  _7
REMARK    5  A    between atoms: _10  and  _12
REMARK    6  A    between atoms: _12  and  _13
REMARK    7  A    between atoms: _16  and  _18
REMARK    8  A    between atoms: _18  and  _19
REMARK    9  A    between atoms: _18  and  _21
REMARK   10  A    between atoms: _21  and  _22
REMARK   11  A    between atoms: _24  and  _26
REMARK   12  A    between atoms: _26  and  _27
REMARK   13  A    between atoms: _29  and  _31
REMARK   14  A    between atoms: _31  and  _32
REMARK   15  A    between atoms: _31  and  _34
REMARK   16  A    between atoms: _34  and  _35
REMARK   17  A    between atoms: _38  and  _40
REMARK   18  A    between atoms: _40  and  _41
REMARK   19  A    between atoms: _40  and  _43
REMARK   20  A    between atoms: _43  and  _44
REMARK   21  A    between atoms: _46  and  _48
REMARK   22  A    between atoms: _48  and  _49
REMARK   23  A    between atoms: _52  and  _54
REMARK   24  A    between atoms: _54  and  _55
REMARK   25  A    between atoms: _54  and  _57
REMARK   26  A    between atoms: _57  and  _58
REMARK   27  A    between atoms: _61  and  _63
REMARK   28  A    between atoms: _63  and  _64
REMARK   29  A    between atoms: _63  and  _66
REMARK   30  A    between atoms: _66  and  _67
REMARK   31  A    between atoms: _70  and  _72
REMARK   32  A    between atoms: _72  and  _73
REMARK   33  A    between atoms: _76  and  _78
REMARK   34  A    between atoms: _78  and  _79
REMARK   35  A    between atoms: _78  and  _81
REMARK   36  A    between atoms: _81  and  _82
REMARK   37  A    between atoms: _85  and  _87
REMARK   38  A    between atoms: _87  and  _88
REMARK   39  A    between atoms: _87  and  _90
REMARK   40  A    between atoms: _90  and  _91
REMARK   41  A    between atoms: _96  and  _97
REMARK   42  A    between atoms: _99  and  _101
REMARK   43  A    between atoms: _101  and  _102
REMARK   44  A    between atoms: _104  and  _106
REMARK   45  A    between atoms: _106  and  _107
REMARK   46  A    between atoms: _106  and  _109
REMARK   47  A    between atoms: _111  and  _113
REMARK   48  A    between atoms: _113  and  _114
REMARK   49  A    between atoms: _113  and  _116
REMARK   50  A    between atoms: _116  and  _117
REMARK   51  A    between atoms: _120  and  _122
REMARK   52  A    between atoms: _122  and  _123
REMARK   53  A    between atoms: _122  and  _125
REMARK   54  A    between atoms: _125  and  _126
REMARK   55  A    between atoms: _131  and  _132
REMARK   56  A    between atoms: _134  and  _136
REMARK   57  A    between atoms: _136  and  _137
REMARK   58  A    between atoms: _136  and  _139
REMARK   59  A    between atoms: _139  and  _140
REMARK   60  A    between atoms: _143  and  _145
REMARK   61  A    between atoms: _145  and  _146
REMARK   62  A    between atoms: _145  and  _148
REMARK   63  A    between atoms: _148  and  _149
REMARK   64  A    between atoms: _149  and  _150
REMARK   65  A    between atoms: _153  and  _155
REMARK   66  A    between atoms: _155  and  _156
REMARK   67  A    between atoms: _155  and  _158
REMARK   68  A    between atoms: _158  and  _159
REMARK   69  A    between atoms: _163  and  _164
REMARK   70  A    between atoms: _169  and  _171
REMARK   71  A    between atoms: _171  and  _172
REMARK   72  A    between atoms: _175  and  _177
REMARK   73  A    between atoms: _177  and  _178
REMARK   74  A    between atoms: _177  and  _180
REMARK   75  A    between atoms: _180  and  _181
REMARK   76  A    between atoms: _186  and  _188
REMARK   77  A    between atoms: _188  and  _189
REMARK   78  A    between atoms: _188  and  _191
REMARK   79  A    between atoms: _191  and  _192
REMARK   80  A    between atoms: _195  and  _197
REMARK   81  A    between atoms: _197  and  _198
REMARK   82  A    between atoms: _197  and  _200
REMARK   83  A    between atoms: _200  and  _201
REMARK   84  A    between atoms: _206  and  _208
REMARK   85  A    between atoms: _208  and  _209
REMARK   86  A    between atoms: _208  and  _211
REMARK   87  A    between atoms: _211  and  _212
REMARK   88  A    between atoms: _215  and  _217
REMARK   89  A    between atoms: _217  and  _218
REMARK   90  A    between atoms: _217  and  _220
REMARK   91  A    between atoms: _220  and  _221
REMARK   92  A    between atoms: _227  and  _229
REMARK   93  A    between atoms: _229  and  _230
REMARK   94  A    between atoms: _229  and  _232
REMARK   95  A    between atoms: _232  and  _233
REMARK   96  A    between atoms: _233  and  _234
REMARK   97  A    between atoms: _236  and  _238
REMARK   98  A    between atoms: _238  and  _239
REMARK   99  A    between atoms: _238  and  _241
REMARK  100  A    between atoms: _244  and  _246
REMARK  101  A    between atoms: _246  and  _247
REMARK  102  A    between atoms: _246  and  _249
REMARK  103  A    between atoms: _249  and  _250
REMARK  104  A    between atoms: _255  and  _257
REMARK  105  A    between atoms: _257  and  _258
REMARK  106  A    between atoms: _257  and  _260
REMARK  107  A    between atoms: _260  and  _261
REMARK  108  A    between atoms: _263  and  _265
REMARK  109  A    between atoms: _265  and  _266
REMARK  110  A    between atoms: _265  and  _268
REMARK  111  A    between atoms: _271  and  _273
REMARK  112  A    between atoms: _273  and  _274
REMARK  113  A    between atoms: _273  and  _276
REMARK  114  A    between atoms: _276  and  _277
REMARK  115  A    between atoms: _280  and  _282
REMARK  116  A    between atoms: _282  and  _283
REMARK  117  A    between atoms: _282  and  _285
REMARK  118  A    between atoms: _285  and  _286
REMARK  119  A    between atoms: _286  and  _287
REMARK  120  A    between atoms: _287  and  _288
REMARK  121  A    between atoms: _288  and  _289
REMARK  122  A    between atoms: _293  and  _295
REMARK  123  A    between atoms: _295  and  _296
REMARK  124  A    between atoms: _295  and  _298
REMARK  125  A    between atoms: _301  and  _303
REMARK  126  A    between atoms: _303  and  _304
REMARK  127  A    between atoms: _303  and  _306
REMARK  128  A    between atoms: _306  and  _307
REMARK  129  A    between atoms: _310  and  _312
REMARK  130  A    between atoms: _312  and  _313
REMARK  131  A    between atoms: _315  and  _317
REMARK  132  A    between atoms: _317  and  _318
REMARK  133  A    between atoms: _320  and  _322
REMARK  134  A    between atoms: _322  and  _323
REMARK  135  A    between atoms: _322  and  _325
REMARK  136  A    between atoms: _325  and  _326
REMARK  137  A    between atoms: _329  and  _331
REMARK  138  A    between atoms: _331  and  _332
REMARK  139  A    between atoms: _331  and  _334
REMARK  140  A    between atoms: _334  and  _335
REMARK  141  A    between atoms: _338  and  _340
REMARK  142  A    between atoms: _340  and  _341
REMARK  143  A    between atoms: _344  and  _346
REMARK  144  A    between atoms: _346  and  _347
REMARK  145  A    between atoms: _346  and  _349
REMARK  146  A    between atoms: _352  and  _354
REMARK  147  A    between atoms: _354  and  _355
REMARK  148  A    between atoms: _354  and  _357
REMARK  149  A    between atoms: _357  and  _358
REMARK  150  A    between atoms: _360  and  _362
REMARK  151  A    between atoms: _362  and  _363
REMARK  152  A    between atoms: _362  and  _365
REMARK  153  A    between atoms: _365  and  _366
REMARK  154  A    between atoms: _369  and  _371
REMARK  155  A    between atoms: _371  and  _372
REMARK  156  A    between atoms: _374  and  _376
REMARK  157  A    between atoms: _376  and  _377
REMARK  158  A    between atoms: _376  and  _379
REMARK  159  A    between atoms: _379  and  _380
REMARK  160  A    between atoms: _383  and  _385
REMARK  161  A    between atoms: _385  and  _386
REMARK  162  A    between atoms: _385  and  _388
REMARK  163  A    between atoms: _388  and  _389
REMARK  164  A    between atoms: _389  and  _390
REMARK  165  A    between atoms: _395  and  _397
REMARK  166  A    between atoms: _397  and  _398
REMARK  167  A    between atoms: _397  and  _400
REMARK  168  A    between atoms: _400  and  _401
REMARK  169  A    between atoms: _404  and  _406
REMARK  170  A    between atoms: _406  and  _407
REMARK  171  A    between atoms: _406  and  _409
REMARK  172  A    between atoms: _409  and  _410
REMARK  173  A    between atoms: _410  and  _411
REMARK  174  A    between atoms: _411  and  _412
REMARK  175  A    between atoms: _421  and  _423
REMARK  176  A    between atoms: _423  and  _424
REMARK  177  A    between atoms: _423  and  _426
REMARK  178  A    between atoms: _426  and  _427
REMARK  179  A    between atoms: _429  and  _431
REMARK  180  A    between atoms: _431  and  _432
REMARK  181  A    between atoms: _431  and  _434
REMARK  182  A    between atoms: _434  and  _435
REMARK  183  A    between atoms: _438  and  _440
REMARK  184  A    between atoms: _440  and  _441
REMARK  185  A    between atoms: _440  and  _443
REMARK  186  A    between atoms: _443  and  _444
REMARK  187  A    between atoms: _450  and  _452
REMARK  188  A    between atoms: _452  and  _453
REMARK  189  A    between atoms: _452  and  _455
REMARK  190  A    between atoms: _455  and  _456
REMARK  191  A    between atoms: _462  and  _464
REMARK  192  A    between atoms: _464  and  _465
REMARK  193  A    between atoms: _464  and  _467
REMARK  194  A    between atoms: _467  and  _468
REMARK  195  A    between atoms: _471  and  _473
REMARK  196  A    between atoms: _473  and  _474
REMARK  197  A    between atoms: _473  and  _476
REMARK  198  A    between atoms: _476  and  _477
REMARK  199  A    between atoms: _482  and  _483
REMARK  200  A    between atoms: _485  and  _487
REMARK  201  A    between atoms: _487  and  _488
REMARK  202  A    between atoms: _487  and  _490
REMARK  203  A    between atoms: _490  and  _491
REMARK  204  A    between atoms: _494  and  _496
REMARK  205  A    between atoms: _496  and  _497
REMARK  206  A    between atoms: _496  and  _499
REMARK  207  A    between atoms: _499  and  _500
REMARK  208  A    between atoms: _500  and  _501
REMARK  209  A    between atoms: _501  and  _502
REMARK  210  A    between atoms: _511  and  _513
REMARK  211  A    between atoms: _513  and  _514
REMARK  212  A    between atoms: _513  and  _516
REMARK  213  A    between atoms: _516  and  _517
REMARK  214  A    between atoms: _520  and  _522
REMARK  215  A    between atoms: _522  and  _523
REMARK  216  A    between atoms: _522  and  _525
REMARK  217  A    between atoms: _525  and  _526
REMARK  218  A    between atoms: _529  and  _531
REMARK  219  A    between atoms: _531  and  _532
REMARK  220  A    between atoms: _531  and  _534
REMARK  221  A    between atoms: _534  and  _535
REMARK  222  A    between atoms: _535  and  _536
REMARK  223  A    between atoms: _536  and  _537
REMARK  224  A    between atoms: _537  and  _538
REMARK  225  A    between atoms: _542  and  _544
REMARK  226  A    between atoms: _544  and  _545
REMARK  227  A    between atoms: _547  and  _549
REMARK  228  A    between atoms: _549  and  _550
REMARK  229  A    between atoms: _549  and  _552
REMARK                            x       y       z     vdW  Elec       q    Type
REMARK                         _______ _______ _______ _____ _____    ______ ____
ROOT
ATOM      1  O   HOH     1      13.618  23.905  16.982  0.00  0.00    +0.000 OA
ENDROOT
TORSDOF 0
REMARK  Name = ../refined-set-2016/4oma/4oma_pocket.pdb
REMARK  229 active torsions:
REMARK  status: ('A' for Active; 'I' for Inactive)
REMARK    1  A    between atoms: _1  and  _3
REMARK    2  A    between atoms: _3  and  _4
REMARK    3  A    between atoms: _3  and  _6
REMARK    4  A    between atoms: _6  and  _7
REMARK    5  A    between atoms: _10  and  _12
REMARK    6  A    between atoms: _12  and  _13
REMARK    7  A    between atoms: _16  and  _18
REMARK    8  A    between atoms: _18  and  _19
REMARK    9  A    between atoms: _18  and  _21
REMARK   10  A    between atoms: _21  and  _22
REMARK   11  A    between atoms: _24  and  _26
REMARK   12  A    between atoms: _26  and  _27
REMARK   13  A    between atoms: _29  and  _31
REMARK   14  A    between atoms: _31  and  _32
REMARK   15  A    between atoms: _31  and  _34
REMARK   16  A    between atoms: _34  and  _35
REMARK   17  A    between atoms: _38  and  _40
REMARK   18  A    between atoms: _40  and  _41
REMARK   19  A    between atoms: _40  and  _43
REMARK   20  A    between atoms: _43  and  _44
REMARK   21  A    between atoms: _46  and  _48
REMARK   22  A    between atoms: _48  and  _49
REMARK   23  A    between atoms: _52  and  _54
REMARK   24  A    between atoms: _54  and  _55
REMARK   25  A    between atoms: _54  and  _57
REMARK   26  A    between atoms: _57  and  _58
REMARK   27  A    between atoms: _61  and  _63
REMARK   28  A    between atoms: _63  and  _64
REMARK   29  A    between atoms: _63  and  _66
REMARK   30  A    between atoms: _66  and  _67
REMARK   31  A    between atoms: _70  and  _72
REMARK   32  A    between atoms: _72  and  _73
REMARK   33  A    between atoms: _76  and  _78
REMARK   34  A    between atoms: _78  and  _79
REMARK   35  A    between atoms: _78  and  _81
REMARK   36  A    between atoms: _81  and  _82
REMARK   37  A    between atoms: _85  and  _87
REMARK   38  A    between atoms: _87  and  _88
REMARK   39  A    between atoms: _87  and  _90
REMARK   40  A    between atoms: _90  and  _91
REMARK   41  A    between atoms: _96  and  _97
REMARK   42  A    between atoms: _99  and  _101
REMARK   43  A    between atoms: _101  and  _102
REMARK   44  A    between atoms: _104  and  _106
REMARK   45  A    between atoms: _106  and  _107
REMARK   46  A    between atoms: _106  and  _109
REMARK   47  A    between atoms: _111  and  _113
REMARK   48  A    between atoms: _113  and  _114
REMARK   49  A    between atoms: _113  and  _116
REMARK   50  A    between atoms: _116  and  _117
REMARK   51  A    between atoms: _120  and  _122
REMARK   52  A    between atoms: _122  and  _123
REMARK   53  A    between atoms: _122  and  _125
REMARK   54  A    between atoms: _125  and  _126
REMARK   55  A    between atoms: _131  and  _132
REMARK   56  A    between atoms: _134  and  _136
REMARK   57  A    between atoms: _136  and  _137
REMARK   58  A    between atoms: _136  and  _139
REMARK   59  A    between atoms: _139  and  _140
REMARK   60  A    between atoms: _143  and  _145
REMARK   61  A    between atoms: _145  and  _146
REMARK   62  A    between atoms: _145  and  _148
REMARK   63  A    between atoms: _148  and  _149
REMARK   64  A    between atoms: _149  and  _150
REMARK   65  A    between atoms: _153  and  _155
REMARK   66  A    between atoms: _155  and  _156
REMARK   67  A    between atoms: _155  and  _158
REMARK   68  A    between atoms: _158  and  _159
REMARK   69  A    between atoms: _163  and  _164
REMARK   70  A    between atoms: _169  and  _171
REMARK   71  A    between atoms: _171  and  _172
REMARK   72  A    between atoms: _175  and  _177
REMARK   73  A    between atoms: _177  and  _178
REMARK   74  A    between atoms: _177  and  _180
REMARK   75  A    between atoms: _180  and  _181
REMARK   76  A    between atoms: _186  and  _188
REMARK   77  A    between atoms: _188  and  _189
REMARK   78  A    between atoms: _188  and  _191
REMARK   79  A    between atoms: _191  and  _192
REMARK   80  A    between atoms: _195  and  _197
REMARK   81  A    between atoms: _197  and  _198
REMARK   82  A    between atoms: _197  and  _200
REMARK   83  A    between atoms: _200  and  _201
REMARK   84  A    between atoms: _206  and  _208
REMARK   85  A    between atoms: _208  and  _209
REMARK   86  A    between atoms: _208  and  _211
REMARK   87  A    between atoms: _211  and  _212
REMARK   88  A    between atoms: _215  and  _217
REMARK   89  A    between atoms: _217  and  _218
REMARK   90  A    between atoms: _217  and  _220
REMARK   91  A    between atoms: _220  and  _221
REMARK   92  A    between atoms: _227  and  _229
REMARK   93  A    between atoms: _229  and  _230
REMARK   94  A    between atoms: _229  and  _232
REMARK   95  A    between atoms: _232  and  _233
REMARK   96  A    between atoms: _233  and  _234
REMARK   97  A    between atoms: _236  and  _238
REMARK   98  A    between atoms: _238  and  _239
REMARK   99  A    between atoms: _238  and  _241
REMARK  100  A    between atoms: _244  and  _246
REMARK  101  A    between atoms: _246  and  _247
REMARK  102  A    between atoms: _246  and  _249
REMARK  103  A    between atoms: _249  and  _250
REMARK  104  A    between atoms: _255  and  _257
REMARK  105  A    between atoms: _257  and  _258
REMARK  106  A    between atoms: _257  and  _260
REMARK  107  A    between atoms: _260  and  _261
REMARK  108  A    between atoms: _263  and  _265
REMARK  109  A    between atoms: _265  and  _266
REMARK  110  A    between atoms: _265  and  _268
REMARK  111  A    between atoms: _271  and  _273
REMARK  112  A    between atoms: _273  and  _274
REMARK  113  A    between atoms: _273  and  _276
REMARK  114  A    between atoms: _276  and  _277
REMARK  115  A    between atoms: _280  and  _282
REMARK  116  A    between atoms: _282  and  _283
REMARK  117  A    between atoms: _282  and  _285
REMARK  118  A    between atoms: _285  and  _286
REMARK  119  A    between atoms: _286  and  _287
REMARK  120  A    between atoms: _287  and  _288
REMARK  121  A    between atoms: _288  and  _289
REMARK  122  A    between atoms: _293  and  _295
REMARK  123  A    between atoms: _295  and  _296
REMARK  124  A    between atoms: _295  and  _298
REMARK  125  A    between atoms: _301  and  _303
REMARK  126  A    between atoms: _303  and  _304
REMARK  127  A    between atoms: _303  and  _306
REMARK  128  A    between atoms: _306  and  _307
REMARK  129  A    between atoms: _310  and  _312
REMARK  130  A    between atoms: _312  and  _313
REMARK  131  A    between atoms: _315  and  _317
REMARK  132  A    between atoms: _317  and  _318
REMARK  133  A    between atoms: _320  and  _322
REMARK  134  A    between atoms: _322  and  _323
REMARK  135  A    between atoms: _322  and  _325
REMARK  136  A    between atoms: _325  and  _326
REMARK  137  A    between atoms: _329  and  _331
REMARK  138  A    between atoms: _331  and  _332
REMARK  139  A    between atoms: _331  and  _334
REMARK  140  A    between atoms: _334  and  _335
REMARK  141  A    between atoms: _338  and  _340
REMARK  142  A    between atoms: _340  and  _341
REMARK  143  A    between atoms: _344  and  _346
REMARK  144  A    between atoms: _346  and  _347
REMARK  145  A    between atoms: _346  and  _349
REMARK  146  A    between atoms: _352  and  _354
REMARK  147  A    between atoms: _354  and  _355
REMARK  148  A    between atoms: _354  and  _357
REMARK  149  A    between atoms: _357  and  _358
REMARK  150  A    between atoms: _360  and  _362
REMARK  151  A    between atoms: _362  and  _363
REMARK  152  A    between atoms: _362  and  _365
REMARK  153  A    between atoms: _365  and  _366
REMARK  154  A    between atoms: _369  and  _371
REMARK  155  A    between atoms: _371  and  _372
REMARK  156  A    between atoms: _374  and  _376
REMARK  157  A    between atoms: _376  and  _377
REMARK  158  A    between atoms: _376  and  _379
REMARK  159  A    between atoms: _379  and  _380
REMARK  160  A    between atoms: _383  and  _385
REMARK  161  A    between atoms: _385  and  _386
REMARK  162  A    between atoms: _385  and  _388
REMARK  163  A    between atoms: _388  and  _389
REMARK  164  A    between atoms: _389  and  _390
REMARK  165  A    between atoms: _395  and  _397
REMARK  166  A    between atoms: _397  and  _398
REMARK  167  A    between atoms: _397  and  _400
REMARK  168  A    between atoms: _400  and  _401
REMARK  169  A    between atoms: _404  and  _406
REMARK  170  A    between atoms: _406  and  _407
REMARK  171  A    between atoms: _406  and  _409
REMARK  172  A    between atoms: _409  and  _410
REMARK  173  A    between atoms: _410  and  _411
REMARK  174  A    between atoms: _411  and  _412
REMARK  175  A    between atoms: _421  and  _423
REMARK  176  A    between atoms: _423  and  _424
REMARK  177  A    between atoms: _423  and  _426
REMARK  178  A    between atoms: _426  and  _427
REMARK  179  A    between atoms: _429  and  _431
REMARK  180  A    between atoms: _431  and  _432
REMARK  181  A    between atoms: _431  and  _434
REMARK  182  A    between atoms: _434  and  _435
REMARK  183  A    between atoms: _438  and  _440
REMARK  184  A    between atoms: _440  and  _441
REMARK  185  A    between atoms: _440  and  _443
REMARK  186  A    between atoms: _443  and  _444
REMARK  187  A    between atoms: _450  and  _452
REMARK  188  A    between atoms: _452  and  _453
REMARK  189  A    between atoms: _452  and  _455
REMARK  190  A    between atoms: _455  and  _456
REMARK  191  A    between atoms: _462  and  _464
REMARK  192  A    between atoms: _464  and  _465
REMARK  193  A    between atoms: _464  and  _467
REMARK  194  A    between atoms: _467  and  _468
REMARK  195  A    between atoms: _471  and  _473
REMARK  196  A    between atoms: _473  and  _474
REMARK  197  A    between atoms: _473  and  _476
REMARK  198  A    between atoms: _476  and  _477
REMARK  199  A    between atoms: _482  and  _483
REMARK  200  A    between atoms: _485  and  _487
REMARK  201  A    between atoms: _487  and  _488
REMARK  202  A    between atoms: _487  and  _490
REMARK  203  A    between atoms: _490  and  _491
REMARK  204  A    between atoms: _494  and  _496
REMARK  205  A    between atoms: _496  and  _497
REMARK  206  A    between atoms: _496  and  _499
REMARK  207  A    between atoms: _499  and  _500
REMARK  208  A    between atoms: _500  and  _501
REMARK  209  A    between atoms: _501  and  _502
REMARK  210  A    between atoms: _511  and  _513
REMARK  211  A    between atoms: _513  and  _514
REMARK  212  A    between atoms: _513  and  _516
REMARK  213  A    between atoms: _516  and  _517
REMARK  214  A    between atoms: _520  and  _522
REMARK  215  A    between atoms: _522  and  _523
REMARK  216  A    between atoms: _522  and  _525
REMARK  217  A    between atoms: _525  and  _526
REMARK  218  A    between atoms: _529  and  _531
REMARK  219  A    between atoms: _531  and  _532
REMARK  220  A    between atoms: _531  and  _534
REMARK  221  A    between atoms: _534  and  _535
REMARK  222  A    between atoms: _535  and  _536
REMARK  223  A    between atoms: _536  and  _537
REMARK  224  A    between atoms: _537  and  _538
REMARK  225  A    between atoms: _542  and  _544
REMARK  226  A    between atoms: _544  and  _545
REMARK  227  A    between atoms: _547  and  _549
REMARK  228  A    between atoms: _549  and  _550
REMARK  229  A    between atoms: _549  and  _552
REMARK                            x       y       z     vdW  Elec       q    Type
REMARK                         _______ _______ _______ _____ _____    ______ ____
ROOT
ATOM      1  O   HOH     1      14.596  20.880  15.684  0.00  0.00    +0.000 OA
ENDROOT
TORSDOF 0
REMARK  Name = ../refined-set-2016/4oma/4oma_pocket.pdb
REMARK  229 active torsions:
REMARK  status: ('A' for Active; 'I' for Inactive)
REMARK    1  A    between atoms: _1  and  _3
REMARK    2  A    between atoms: _3  and  _4
REMARK    3  A    between atoms: _3  and  _6
REMARK    4  A    between atoms: _6  and  _7
REMARK    5  A    between atoms: _10  and  _12
REMARK    6  A    between atoms: _12  and  _13
REMARK    7  A    between atoms: _16  and  _18
REMARK    8  A    between atoms: _18  and  _19
REMARK    9  A    between atoms: _18  and  _21
REMARK   10  A    between atoms: _21  and  _22
REMARK   11  A    between atoms: _24  and  _26
REMARK   12  A    between atoms: _26  and  _27
REMARK   13  A    between atoms: _29  and  _31
REMARK   14  A    between atoms: _31  and  _32
REMARK   15  A    between atoms: _31  and  _34
REMARK   16  A    between atoms: _34  and  _35
REMARK   17  A    between atoms: _38  and  _40
REMARK   18  A    between atoms: _40  and  _41
REMARK   19  A    between atoms: _40  and  _43
REMARK   20  A    between atoms: _43  and  _44
REMARK   21  A    between atoms: _46  and  _48
REMARK   22  A    between atoms: _48  and  _49
REMARK   23  A    between atoms: _52  and  _54
REMARK   24  A    between atoms: _54  and  _55
REMARK   25  A    between atoms: _54  and  _57
REMARK   26  A    between atoms: _57  and  _58
REMARK   27  A    between atoms: _61  and  _63
REMARK   28  A    between atoms: _63  and  _64
REMARK   29  A    between atoms: _63  and  _66
REMARK   30  A    between atoms: _66  and  _67
REMARK   31  A    between atoms: _70  and  _72
REMARK   32  A    between atoms: _72  and  _73
REMARK   33  A    between atoms: _76  and  _78
REMARK   34  A    between atoms: _78  and  _79
REMARK   35  A    between atoms: _78  and  _81
REMARK   36  A    between atoms: _81  and  _82
REMARK   37  A    between atoms: _85  and  _87
REMARK   38  A    between atoms: _87  and  _88
REMARK   39  A    between atoms: _87  and  _90
REMARK   40  A    between atoms: _90  and  _91
REMARK   41  A    between atoms: _96  and  _97
REMARK   42  A    between atoms: _99  and  _101
REMARK   43  A    between atoms: _101  and  _102
REMARK   44  A    between atoms: _104  and  _106
REMARK   45  A    between atoms: _106  and  _107
REMARK   46  A    between atoms: _106  and  _109
REMARK   47  A    between atoms: _111  and  _113
REMARK   48  A    between atoms: _113  and  _114
REMARK   49  A    between atoms: _113  and  _116
REMARK   50  A    between atoms: _116  and  _117
REMARK   51  A    between atoms: _120  and  _122
REMARK   52  A    between atoms: _122  and  _123
REMARK   53  A    between atoms: _122  and  _125
REMARK   54  A    between atoms: _125  and  _126
REMARK   55  A    between atoms: _131  and  _132
REMARK   56  A    between atoms: _134  and  _136
REMARK   57  A    between atoms: _136  and  _137
REMARK   58  A    between atoms: _136  and  _139
REMARK   59  A    between atoms: _139  and  _140
REMARK   60  A    between atoms: _143  and  _145
REMARK   61  A    between atoms: _145  and  _146
REMARK   62  A    between atoms: _145  and  _148
REMARK   63  A    between atoms: _148  and  _149
REMARK   64  A    between atoms: _149  and  _150
REMARK   65  A    between atoms: _153  and  _155
REMARK   66  A    between atoms: _155  and  _156
REMARK   67  A    between atoms: _155  and  _158
REMARK   68  A    between atoms: _158  and  _159
REMARK   69  A    between atoms: _163  and  _164
REMARK   70  A    between atoms: _169  and  _171
REMARK   71  A    between atoms: _171  and  _172
REMARK   72  A    between atoms: _175  and  _177
REMARK   73  A    between atoms: _177  and  _178
REMARK   74  A    between atoms: _177  and  _180
REMARK   75  A    between atoms: _180  and  _181
REMARK   76  A    between atoms: _186  and  _188
REMARK   77  A    between atoms: _188  and  _189
REMARK   78  A    between atoms: _188  and  _191
REMARK   79  A    between atoms: _191  and  _192
REMARK   80  A    between atoms: _195  and  _197
REMARK   81  A    between atoms: _197  and  _198
REMARK   82  A    between atoms: _197  and  _200
REMARK   83  A    between atoms: _200  and  _201
REMARK   84  A    between atoms: _206  and  _208
REMARK   85  A    between atoms: _208  and  _209
REMARK   86  A    between atoms: _208  and  _211
REMARK   87  A    between atoms: _211  and  _212
REMARK   88  A    between atoms: _215  and  _217
REMARK   89  A    between atoms: _217  and  _218
REMARK   90  A    between atoms: _217  and  _220
REMARK   91  A    between atoms: _220  and  _221
REMARK   92  A    between atoms: _227  and  _229
REMARK   93  A    between atoms: _229  and  _230
REMARK   94  A    between atoms: _229  and  _232
REMARK   95  A    between atoms: _232  and  _233
REMARK   96  A    between atoms: _233  and  _234
REMARK   97  A    between atoms: _236  and  _238
REMARK   98  A    between atoms: _238  and  _239
REMARK   99  A    between atoms: _238  and  _241
REMARK  100  A    between atoms: _244  and  _246
REMARK  101  A    between atoms: _246  and  _247
REMARK  102  A    between atoms: _246  and  _249
REMARK  103  A    between atoms: _249  and  _250
REMARK  104  A    between atoms: _255  and  _257
REMARK  105  A    between atoms: _257  and  _258
REMARK  106  A    between atoms: _257  and  _260
REMARK  107  A    between atoms: _260  and  _261
REMARK  108  A    between atoms: _263  and  _265
REMARK  109  A    between atoms: _265  and  _266
REMARK  110  A    between atoms: _265  and  _268
REMARK  111  A    between atoms: _271  and  _273
REMARK  112  A    between atoms: _273  and  _274
REMARK  113  A    between atoms: _273  and  _276
REMARK  114  A    between atoms: _276  and  _277
REMARK  115  A    between atoms: _280  and  _282
REMARK  116  A    between atoms: _282  and  _283
REMARK  117  A    between atoms: _282  and  _285
REMARK  118  A    between atoms: _285  and  _286
REMARK  119  A    between atoms: _286  and  _287
REMARK  120  A    between atoms: _287  and  _288
REMARK  121  A    between atoms: _288  and  _289
REMARK  122  A    between atoms: _293  and  _295
REMARK  123  A    between atoms: _295  and  _296
REMARK  124  A    between atoms: _295  and  _298
REMARK  125  A    between atoms: _301  and  _303
REMARK  126  A    between atoms: _303  and  _304
REMARK  127  A    between atoms: _303  and  _306
REMARK  128  A    between atoms: _306  and  _307
REMARK  129  A    between atoms: _310  and  _312
REMARK  130  A    between atoms: _312  and  _313
REMARK  131  A    between atoms: _315  and  _317
REMARK  132  A    between atoms: _317  and  _318
REMARK  133  A    between atoms: _320  and  _322
REMARK  134  A    between atoms: _322  and  _323
REMARK  135  A    between atoms: _322  and  _325
REMARK  136  A    between atoms: _325  and  _326
REMARK  137  A    between atoms: _329  and  _331
REMARK  138  A    between atoms: _331  and  _332
REMARK  139  A    between atoms: _331  and  _334
REMARK  140  A    between atoms: _334  and  _335
REMARK  141  A    between atoms: _338  and  _340
REMARK  142  A    between atoms: _340  and  _341
REMARK  143  A    between atoms: _344  and  _346
REMARK  144  A    between atoms: _346  and  _347
REMARK  145  A    between atoms: _346  and  _349
REMARK  146  A    between atoms: _352  and  _354
REMARK  147  A    between atoms: _354  and  _355
REMARK  148  A    between atoms: _354  and  _357
REMARK  149  A    between atoms: _357  and  _358
REMARK  150  A    between atoms: _360  and  _362
REMARK  151  A    between atoms: _362  and  _363
REMARK  152  A    between atoms: _362  and  _365
REMARK  153  A    between atoms: _365  and  _366
REMARK  154  A    between atoms: _369  and  _371
REMARK  155  A    between atoms: _371  and  _372
REMARK  156  A    between atoms: _374  and  _376
REMARK  157  A    between atoms: _376  and  _377
REMARK  158  A    between atoms: _376  and  _379
REMARK  159  A    between atoms: _379  and  _380
REMARK  160  A    between atoms: _383  and  _385
REMARK  161  A    between atoms: _385  and  _386
REMARK  162  A    between atoms: _385  and  _388
REMARK  163  A    between atoms: _388  and  _389
REMARK  164  A    between atoms: _389  and  _390
REMARK  165  A    between atoms: _395  and  _397
REMARK  166  A    between atoms: _397  and  _398
REMARK  167  A    between atoms: _397  and  _400
REMARK  168  A    between atoms: _400  and  _401
REMARK  169  A    between atoms: _404  and  _406
REMARK  170  A    between atoms: _406  and  _407
REMARK  171  A    between atoms: _406  and  _409
REMARK  172  A    between atoms: _409  and  _410
REMARK  173  A    between atoms: _410  and  _411
REMARK  174  A    between atoms: _411  and  _412
REMARK  175  A    between atoms: _421  and  _423
REMARK  176  A    between atoms: _423  and  _424
REMARK  177  A    between atoms: _423  and  _426
REMARK  178  A    between atoms: _426  and  _427
REMARK  179  A    between atoms: _429  and  _431
REMARK  180  A    between atoms: _431  and  _432
REMARK  181  A    between atoms: _431  and  _434
REMARK  182  A    between atoms: _434  and  _435
REMARK  183  A    between atoms: _438  and  _440
REMARK  184  A    between atoms: _440  and  _441
REMARK  185  A    between atoms: _440  and  _443
REMARK  186  A    between atoms: _443  and  _444
REMARK  187  A    between atoms: _450  and  _452
REMARK  188  A    between atoms: _452  and  _453
REMARK  189  A    between atoms: _452  and  _455
REMARK  190  A    between atoms: _455  and  _456
REMARK  191  A    between atoms: _462  and  _464
REMARK  192  A    between atoms: _464  and  _465
REMARK  193  A    between atoms: _464  and  _467
REMARK  194  A    between atoms: _467  and  _468
REMARK  195  A    between atoms: _471  and  _473
REMARK  196  A    between atoms: _473  and  _474
REMARK  197  A    between atoms: _473  and  _476
REMARK  198  A    between atoms: _476  and  _477
REMARK  199  A    between atoms: _482  and  _483
REMARK  200  A    between atoms: _485  and  _487
REMARK  201  A    between atoms: _487  and  _488
REMARK  202  A    between atoms: _487  and  _490
REMARK  203  A    between atoms: _490  and  _491
REMARK  204  A    between atoms: _494  and  _496
REMARK  205  A    between atoms: _496  and  _497
REMARK  206  A    between atoms: _496  and  _499
REMARK  207  A    between atoms: _499  and  _500
REMARK  208  A    between atoms: _500  and  _501
REMARK  209  A    between atoms: _501  and  _502
REMARK  210  A    between atoms: _511  and  _513
REMARK  211  A    between atoms: _513  and  _514
REMARK  212  A    between atoms: _513  and  _516
REMARK  213  A    between atoms: _516  and  _517
REMARK  214  A    between atoms: _520  and  _522
REMARK  215  A    between atoms: _522  and  _523
REMARK  216  A    between atoms: _522  and  _525
REMARK  217  A    between atoms: _525  and  _526
REMARK  218  A    between atoms: _529  and  _531
REMARK  219  A    between atoms: _531  and  _532
REMARK  220  A    between atoms: _531  and  _534
REMARK  221  A    between atoms: _534  and  _535
REMARK  222  A    between atoms: _535  and  _536
REMARK  223  A    between atoms: _536  and  _537
REMARK  224  A    between atoms: _537  and  _538
REMARK  225  A    between atoms: _542  and  _544
REMARK  226  A    between atoms: _544  and  _545
REMARK  227  A    between atoms: _547  and  _549
REMARK  228  A    between atoms: _549  and  _550
REMARK  229  A    between atoms: _549  and  _552
REMARK                            x       y       z     vdW  Elec       q    Type
REMARK                         _______ _______ _______ _____ _____    ______ ____
ROOT
ATOM      1  O   HOH     1      16.492  12.761  10.154  0.00  0.00    +0.000 OA
ENDROOT
TORSDOF 0
