REMARK  Name = ../refined-set-2016/2qbw/2qbw_pocket.pdb
REMARK  239 active torsions:
REMARK  status: ('A' for Active; 'I' for Inactive)
REMARK    1  A    between atoms: _1  and  _5
REMARK    2  A    between atoms: _5  and  _6
REMARK    3  A    between atoms: _5  and  _8
REMARK    4  A    between atoms: _8  and  _9
REMARK    5  A    between atoms: _12  and  _13
REMARK    6  A    between atoms: _18  and  _20
REMARK    7  A    between atoms: _20  and  _21
REMARK    8  A    between atoms: _20  and  _23
REMARK    9  A    between atoms: _23  and  _24
REMARK   10  A    between atoms: _24  and  _25
REMARK   11  A    between atoms: _28  and  _30
REMARK   12  A    between atoms: _30  and  _31
REMARK   13  A    between atoms: _30  and  _33
REMARK   14  A    between atoms: _33  and  _34
REMARK   15  A    between atoms: _37  and  _39
REMARK   16  A    between atoms: _39  and  _40
REMARK   17  A    between atoms: _42  and  _44
REMARK   18  A    between atoms: _44  and  _45
REMARK   19  A    between atoms: _44  and  _47
REMARK   20  A    between atoms: _47  and  _48
REMARK   21  A    between atoms: _54  and  _56
REMARK   22  A    between atoms: _56  and  _57
REMARK   23  A    between atoms: _56  and  _59
REMARK   24  A    between atoms: _59  and  _60
REMARK   25  A    between atoms: _62  and  _64
REMARK   26  A    between atoms: _64  and  _65
REMARK   27  A    between atoms: _64  and  _67
REMARK   28  A    between atoms: _67  and  _68
REMARK   29  A    between atoms: _71  and  _73
REMARK   30  A    between atoms: _73  and  _74
REMARK   31  A    between atoms: _73  and  _76
REMARK   32  A    between atoms: _76  and  _77
REMARK   33  A    between atoms: _79  and  _81
REMARK   34  A    between atoms: _81  and  _82
REMARK   35  A    between atoms: _84  and  _86
REMARK   36  A    between atoms: _86  and  _87
REMARK   37  A    between atoms: _89  and  _91
REMARK   38  A    between atoms: _91  and  _92
REMARK   39  A    between atoms: _94  and  _96
REMARK   40  A    between atoms: _96  and  _97
REMARK   41  A    between atoms: _96  and  _99
REMARK   42  A    between atoms: _99  and  _100
REMARK   43  A    between atoms: _100  and  _101
REMARK   44  A    between atoms: _101  and  _102
REMARK   45  A    between atoms: _111  and  _113
REMARK   46  A    between atoms: _113  and  _114
REMARK   47  A    between atoms: _116  and  _118
REMARK   48  A    between atoms: _118  and  _119
REMARK   49  A    between atoms: _118  and  _121
REMARK   50  A    between atoms: _121  and  _122
REMARK   51  A    between atoms: _128  and  _129
REMARK   52  A    between atoms: _134  and  _136
REMARK   53  A    between atoms: _136  and  _137
REMARK   54  A    between atoms: _136  and  _139
REMARK   55  A    between atoms: _139  and  _140
REMARK   56  A    between atoms: _146  and  _148
REMARK   57  A    between atoms: _148  and  _149
REMARK   58  A    between atoms: _148  and  _151
REMARK   59  A    between atoms: _151  and  _152
REMARK   60  A    between atoms: _155  and  _157
REMARK   61  A    between atoms: _157  and  _158
REMARK   62  A    between atoms: _157  and  _160
REMARK   63  A    between atoms: _160  and  _161
REMARK   64  A    between atoms: _167  and  _169
REMARK   65  A    between atoms: _169  and  _170
REMARK   66  A    between atoms: _169  and  _172
REMARK   67  A    between atoms: _175  and  _177
REMARK   68  A    between atoms: _177  and  _178
REMARK   69  A    between atoms: _177  and  _180
REMARK   70  A    between atoms: _180  and  _181
REMARK   71  A    between atoms: _184  and  _186
REMARK   72  A    between atoms: _186  and  _187
REMARK   73  A    between atoms: _186  and  _189
REMARK   74  A    between atoms: _189  and  _190
REMARK   75  A    between atoms: _190  and  _191
REMARK   76  A    between atoms: _191  and  _192
REMARK   77  A    between atoms: _201  and  _203
REMARK   78  A    between atoms: _203  and  _204
REMARK   79  A    between atoms: _203  and  _206
REMARK   80  A    between atoms: _209  and  _211
REMARK   81  A    between atoms: _211  and  _212
REMARK   82  A    between atoms: _211  and  _214
REMARK   83  A    between atoms: _214  and  _215
REMARK   84  A    between atoms: _215  and  _216
REMARK   85  A    between atoms: _222  and  _223
REMARK   86  A    between atoms: _229  and  _230
REMARK   87  A    between atoms: _235  and  _237
REMARK   88  A    between atoms: _237  and  _238
REMARK   89  A    between atoms: _241  and  _243
REMARK   90  A    between atoms: _243  and  _244
REMARK   91  A    between atoms: _243  and  _246
REMARK   92  A    between atoms: _246  and  _247
REMARK   93  A    between atoms: _250  and  _252
REMARK   94  A    between atoms: _252  and  _253
REMARK   95  A    between atoms: _252  and  _255
REMARK   96  A    between atoms: _255  and  _256
REMARK   97  A    between atoms: _259  and  _261
REMARK   98  A    between atoms: _261  and  _262
REMARK   99  A    between atoms: _261  and  _264
REMARK  100  A    between atoms: _264  and  _265
REMARK  101  A    between atoms: _271  and  _273
REMARK  102  A    between atoms: _273  and  _274
REMARK  103  A    between atoms: _273  and  _276
REMARK  104  A    between atoms: _276  and  _277
REMARK  105  A    between atoms: _282  and  _284
REMARK  106  A    between atoms: _284  and  _285
REMARK  107  A    between atoms: _287  and  _289
REMARK  108  A    between atoms: _289  and  _290
REMARK  109  A    between atoms: _293  and  _295
REMARK  110  A    between atoms: _295  and  _296
REMARK  111  A    between atoms: _295  and  _298
REMARK  112  A    between atoms: _301  and  _303
REMARK  113  A    between atoms: _303  and  _304
REMARK  114  A    between atoms: _303  and  _306
REMARK  115  A    between atoms: _306  and  _307
REMARK  116  A    between atoms: _309  and  _311
REMARK  117  A    between atoms: _311  and  _312
REMARK  118  A    between atoms: _311  and  _314
REMARK  119  A    between atoms: _314  and  _315
REMARK  120  A    between atoms: _318  and  _320
REMARK  121  A    between atoms: _320  and  _321
REMARK  122  A    between atoms: _320  and  _323
REMARK  123  A    between atoms: _323  and  _324
REMARK  124  A    between atoms: _327  and  _329
REMARK  125  A    between atoms: _329  and  _330
REMARK  126  A    between atoms: _329  and  _332
REMARK  127  A    between atoms: _332  and  _333
REMARK  128  A    between atoms: _333  and  _334
REMARK  129  A    between atoms: _334  and  _335
REMARK  130  A    between atoms: _335  and  _336
REMARK  131  A    between atoms: _340  and  _342
REMARK  132  A    between atoms: _342  and  _343
REMARK  133  A    between atoms: _342  and  _345
REMARK  134  A    between atoms: _345  and  _346
REMARK  135  A    between atoms: _349  and  _351
REMARK  136  A    between atoms: _351  and  _352
REMARK  137  A    between atoms: _351  and  _354
REMARK  138  A    between atoms: _354  and  _355
REMARK  139  A    between atoms: _361  and  _363
REMARK  140  A    between atoms: _363  and  _364
REMARK  141  A    between atoms: _363  and  _366
REMARK  142  A    between atoms: _369  and  _371
REMARK  143  A    between atoms: _371  and  _372
REMARK  144  A    between atoms: _371  and  _374
REMARK  145  A    between atoms: _374  and  _375
REMARK  146  A    between atoms: _378  and  _380
REMARK  147  A    between atoms: _380  and  _381
REMARK  148  A    between atoms: _380  and  _383
REMARK  149  A    between atoms: _386  and  _388
REMARK  150  A    between atoms: _388  and  _389
REMARK  151  A    between atoms: _388  and  _391
REMARK  152  A    between atoms: _391  and  _392
REMARK  153  A    between atoms: _392  and  _393
REMARK  154  A    between atoms: _393  and  _394
REMARK  155  A    between atoms: _394  and  _395
REMARK  156  A    between atoms: _399  and  _401
REMARK  157  A    between atoms: _401  and  _402
REMARK  158  A    between atoms: _401  and  _404
REMARK  159  A    between atoms: _404  and  _405
REMARK  160  A    between atoms: _408  and  _410
REMARK  161  A    between atoms: _410  and  _411
REMARK  162  A    between atoms: _410  and  _413
REMARK  163  A    between atoms: _413  and  _414
REMARK  164  A    between atoms: _419  and  _420
REMARK  165  A    between atoms: _422  and  _424
REMARK  166  A    between atoms: _424  and  _425
REMARK  167  A    between atoms: _424  and  _427
REMARK  168  A    between atoms: _427  and  _428
REMARK  169  A    between atoms: _433  and  _434
REMARK  170  A    between atoms: _436  and  _438
REMARK  171  A    between atoms: _438  and  _439
REMARK  172  A    between atoms: _441  and  _443
REMARK  173  A    between atoms: _443  and  _444
REMARK  174  A    between atoms: _443  and  _446
REMARK  175  A    between atoms: _449  and  _451
REMARK  176  A    between atoms: _451  and  _452
REMARK  177  A    between atoms: _451  and  _454
REMARK  178  A    between atoms: _454  and  _455
REMARK  179  A    between atoms: _457  and  _459
REMARK  180  A    between atoms: _459  and  _460
REMARK  181  A    between atoms: _459  and  _462
REMARK  182  A    between atoms: _462  and  _463
REMARK  183  A    between atoms: _468  and  _469
REMARK  184  A    between atoms: _471  and  _473
REMARK  185  A    between atoms: _473  and  _474
REMARK  186  A    between atoms: _473  and  _476
REMARK  187  A    between atoms: _476  and  _477
REMARK  188  A    between atoms: _482  and  _483
REMARK  189  A    between atoms: _485  and  _487
REMARK  190  A    between atoms: _487  and  _488
REMARK  191  A    between atoms: _487  and  _490
REMARK  192  A    between atoms: _490  and  _491
REMARK  193  A    between atoms: _494  and  _496
REMARK  194  A    between atoms: _496  and  _497
REMARK  195  A    between atoms: _496  and  _499
REMARK  196  A    between atoms: _503  and  _504
REMARK  197  A    between atoms: _509  and  _511
REMARK  198  A    between atoms: _511  and  _512
REMARK  199  A    between atoms: _511  and  _514
REMARK  200  A    between atoms: _514  and  _515
REMARK  201  A    between atoms: _520  and  _521
REMARK  202  A    between atoms: _523  and  _525
REMARK  203  A    between atoms: _525  and  _526
REMARK  204  A    between atoms: _525  and  _528
REMARK  205  A    between atoms: _528  and  _529
REMARK  206  A    between atoms: _534  and  _535
REMARK  207  A    between atoms: _537  and  _539
REMARK  208  A    between atoms: _539  and  _540
REMARK  209  A    between atoms: _539  and  _542
REMARK  210  A    between atoms: _542  and  _543
REMARK  211  A    between atoms: _545  and  _547
REMARK  212  A    between atoms: _547  and  _548
REMARK  213  A    between atoms: _547  and  _550
REMARK  214  A    between atoms: _550  and  _551
REMARK  215  A    between atoms: _554  and  _556
REMARK  216  A    between atoms: _556  and  _557
REMARK  217  A    between atoms: _556  and  _559
REMARK  218  A    between atoms: _559  and  _560
REMARK  219  A    between atoms: _565  and  _566
REMARK  220  A    between atoms: _568  and  _570
REMARK  221  A    between atoms: _570  and  _571
REMARK  222  A    between atoms: _570  and  _573
REMARK  223  A    between atoms: _573  and  _574
REMARK  224  A    between atoms: _579  and  _580
REMARK  225  A    between atoms: _582  and  _584
REMARK  226  A    between atoms: _584  and  _585
REMARK  227  A    between atoms: _587  and  _589
REMARK  228  A    between atoms: _589  and  _590
REMARK  229  A    between atoms: _589  and  _592
REMARK  230  A    between atoms: _592  and  _593
REMARK  231  A    between atoms: _595  and  _597
REMARK  232  A    between atoms: _597  and  _598
REMARK  233  A    between atoms: _597  and  _600
REMARK  234  A    between atoms: _600  and  _601
REMARK  235  A    between atoms: _606  and  _608
REMARK  236  A    between atoms: _608  and  _609
REMARK  237  A    between atoms: _608  and  _611
REMARK  238  A    between atoms: _611  and  _612
REMARK  239  A    between atoms: _617  and  _618
REMARK                            x       y       z     vdW  Elec       q    Type
REMARK                         _______ _______ _______ _____ _____    ______ ____
ROOT
ATOM      1  CA  PHE A   6       3.303  -1.260 -12.631  0.00  0.00    +0.153 C 
ENDROOT
BRANCH   1   2
ATOM      2  C   PHE A   6       3.882  -2.412 -11.844  0.00  0.00    +0.241 C 
ATOM      3  O   PHE A   6       4.801  -2.216 -11.033  0.00  0.00    -0.273 OA
ATOM      4  N   SER A   7       3.286  -3.576 -12.039  0.00  0.00    -0.295 N 
ATOM      5  H   SER A   7       2.430  -3.621 -12.627  0.00  0.00    +0.150 HD
BRANCH   4   6
ATOM      6  CA  SER A   7       3.813  -4.800 -11.440  0.00  0.00    +0.178 C 
BRANCH   6   7
ATOM      7  C   SER A   7       4.431  -5.674 -12.498  0.00  0.00    +0.243 C 
ATOM      8  N   ILE A   8       5.330  -6.559 -12.035  0.00  0.00    -0.297 N 
ATOM      9  H   ILE A   8       5.608  -6.543 -11.033  0.00  0.00    +0.150 HD
ATOM     10  O   SER A   7       4.053  -5.636 -13.696  0.00  0.00    -0.273 OA
BRANCH   8  11
ATOM     11  CA  ILE A   8       5.912  -7.536 -12.934  0.00  0.00    +0.149 C 
BRANCH  11  12
ATOM     12  C   ILE A   8       5.695  -8.930 -12.384  0.00  0.00    +0.241 C 
ATOM     13  O   ILE A   8       5.630  -9.101 -11.172  0.00  0.00    -0.273 OA
ATOM     14  N   SER A   9       5.636  -9.894 -13.289  0.00  0.00    -0.295 N 
ATOM     15  H   SER A   9       5.588  -9.627 -14.293  0.00  0.00    +0.150 HD
BRANCH  14  16
ATOM     16  CA  SER A   9       5.635 -11.309 -12.949  0.00  0.00    +0.178 C 
BRANCH  16  17
ATOM     17  C   SER A   9       6.740 -12.005 -13.751  0.00  0.00    +0.243 C 
ATOM     18  N   GLY A  10       7.091 -13.229 -13.363  0.00  0.00    -0.295 N 
ATOM     19  H   GLY A  10       6.673 -13.634 -12.501  0.00  0.00    +0.150 HD
ATOM     20  O   SER A   9       7.254 -11.463 -14.723  0.00  0.00    -0.273 OA
BRANCH  18  21
ATOM     21  CA  GLY A  10       8.048 -14.005 -14.127  0.00  0.00    +0.176 C 
BRANCH  21  22
ATOM     22  C   GLY A  10       9.437 -14.051 -13.545  0.00  0.00    +0.243 C 
ATOM     23  O   GLY A  10       9.687 -13.568 -12.438  0.00  0.00    -0.273 OA
ATOM     24  N   GLY A  11      10.377 -14.558 -14.336  0.00  0.00    -0.296 N 
ATOM     25  H   GLY A  11      10.113 -14.882 -15.288  0.00  0.00    +0.150 HD
BRANCH  24  26
ATOM     26  CA  GLY A  11      11.742 -14.672 -13.918  0.00  0.00    +0.163 C 
BRANCH  26  27
ATOM     27  C   GLY A  11      12.150 -16.131 -13.808  0.00  0.00    +0.229 C 
ATOM     28  O   GLY A  11      11.315 -16.993 -13.550  0.00  0.00    -0.286 OA
ENDBRANCH  26  27
ENDBRANCH  24  26
ENDBRANCH  21  22
ENDBRANCH  18  21
ENDBRANCH  16  17
BRANCH  16  29
ATOM     29  CB  SER A   9       4.272 -11.913 -13.231  0.00  0.00    +0.166 C 
BRANCH  29  30
ATOM     30  OG  SER A   9       3.914 -11.865 -14.605  0.00  0.00    -0.380 OA
ATOM     31  H   SER A   9       3.893 -10.922 -14.907  0.00  0.00    +0.211 HD
ENDBRANCH  29  30
ENDBRANCH  16  29
ENDBRANCH  14  16
ENDBRANCH  11  12
BRANCH  11  32
ATOM     32  CB  ILE A   8       7.393  -7.304 -13.133  0.00  0.00    +0.027 C 
ATOM     33  CG2 ILE A   8       7.632  -5.997 -13.877  0.00  0.00    +0.002 C 
BRANCH  32  34
ATOM     34  CG1 ILE A   8       8.178  -7.281 -11.806  0.00  0.00    +0.002 C 
ATOM     35  CD1 ILE A   8       9.672  -7.342 -11.974  0.00  0.00    +0.000 C 
ENDBRANCH  32  34
ENDBRANCH  11  32
ENDBRANCH   8  11
ENDBRANCH   6   7
BRANCH   6  36
ATOM     36  CB  SER A   7       2.726  -5.593 -10.661  0.00  0.00    +0.166 C 
BRANCH  36  37
ATOM     37  OG  SER A   7       1.720  -6.158 -11.491  0.00  0.00    -0.380 OA
ATOM     38  H   SER A   7       1.066  -6.645 -10.930  0.00  0.00    +0.211 HD
ENDBRANCH  36  37
ENDBRANCH   6  36
ENDBRANCH   4   6
ENDBRANCH   1   2
BRANCH   1  40
ATOM     39  C   GLY A   5       2.989   1.079 -12.157  0.00  0.00    +0.243 C 
ATOM     40  N   PHE A   6       3.738  -0.016 -12.021  0.00  0.00    -0.297 N 
ATOM     41  H   PHE A   6       4.627   0.021 -11.482  0.00  0.00    +0.150 HD
ATOM     42  O   GLY A   5       1.996   1.118 -12.889  0.00  0.00    -0.273 OA
BRANCH  39  43
ATOM     43  CA  GLY A   5       3.402   2.274 -11.336  0.00  0.00    +0.176 C 
BRANCH  43  45
ATOM     44  C   LEU A   4       5.639   2.921 -12.001  0.00  0.00    +0.241 C 
ATOM     45  N   GLY A   5       4.808   2.411 -11.094  0.00  0.00    -0.295 N 
ATOM     46  H   GLY A   5       5.192   2.101 -10.179  0.00  0.00    +0.150 HD
ATOM     47  O   LEU A   4       5.308   3.119 -13.146  0.00  0.00    -0.273 OA
BRANCH  44  48
ATOM     48  CA  LEU A   4       7.094   3.128 -11.581  0.00  0.00    +0.149 C 
BRANCH  48  51
ATOM     49  C   GLU A   3       7.237   4.335  -9.474  0.00  0.00    +0.241 C 
ATOM     50  O   GLU A   3       7.126   5.409 -10.057  0.00  0.00    -0.273 OA
ATOM     51  N   LEU A   4       7.250   3.178 -10.135  0.00  0.00    -0.297 N 
ATOM     52  H   LEU A   4       7.374   2.291  -9.606  0.00  0.00    +0.150 HD
BRANCH  49  53
ATOM     53  CA  GLU A   3       7.356   4.303  -7.937  0.00  0.00    +0.149 C 
BRANCH  53  56
ATOM     54  C   PRO A   2       7.214   2.632  -6.187  0.00  0.00    +0.241 C 
ATOM     55  O   PRO A   2       6.567   3.377  -5.458  0.00  0.00    -0.273 OA
ATOM     56  N   GLU A   3       7.737   3.019  -7.344  0.00  0.00    -0.297 N 
ATOM     57  H   GLU A   3       8.421   2.407  -7.832  0.00  0.00    +0.150 HD
BRANCH  54  64
ATOM     58  C   SER A   1       8.673   1.529  -3.663  0.00  0.00    +0.208 C 
ATOM     59  O   SER A   1       9.427   2.388  -4.126  0.00  0.00    -0.277 OA
ATOM     60  N   PRO A   2       7.741   0.921  -4.398  0.00  0.00    -0.275 N 
ATOM     61  CD  PRO A   2       6.926  -0.189  -3.864  0.00  0.00    +0.094 C 
ATOM     62  CG  PRO A   2       6.187  -0.662  -5.050  0.00  0.00    +0.024 C 
ATOM     63  CB  PRO A   2       6.082   0.457  -5.941  0.00  0.00    +0.031 C 
ATOM     64  CA  PRO A   2       7.416   1.174  -5.795  0.00  0.00    +0.152 C 
BRANCH  58  65
ATOM     65  CA  SER A   1       8.777   1.099  -2.192  0.00  0.00    +0.043 C 
BRANCH  65  66
ATOM     66  N   SER A   1      10.140   0.569  -1.835  0.00  0.00    +0.389 N 
ATOM     67  H1  SER A   1      10.152   0.295  -0.832  0.00  0.00    -0.088 HD
ATOM     68  H2  SER A   1      10.853   1.308  -2.002  0.00  0.00    -0.088 HD
ATOM     69  H3  SER A   1      10.354  -0.260  -2.425  0.00  0.00    -0.088 HD
ENDBRANCH  65  66
BRANCH  65  70
ATOM     70  CB  SER A   1       8.416   2.295  -1.316  0.00  0.00    +0.124 C 
BRANCH  70  71
ATOM     71  OG  SER A   1       9.516   3.198  -1.233  0.00  0.00    -0.384 OA
ATOM     72  H   SER A   1       9.747   3.519  -2.140  0.00  0.00    +0.210 HD
ENDBRANCH  70  71
ENDBRANCH  65  70
ENDBRANCH  58  65
ENDBRANCH  54  64
ENDBRANCH  53  56
BRANCH  53  73
ATOM     73  CB  GLU A   3       8.277   5.416  -7.451  0.00  0.00    +0.041 C 
BRANCH  73  74
ATOM     74  CG  GLU A   3       9.257   5.118  -6.324  0.00  0.00    +0.116 C 
BRANCH  74  75
ATOM     75  CD  GLU A   3      10.011   6.379  -5.913  0.00  0.00    +0.365 C 
ATOM     76  OE2 GLU A   3      10.180   6.623  -4.686  0.00  0.00    -0.246 OA
ATOM     77  OE1 GLU A   3      10.436   7.140  -6.824  0.00  0.00    -0.246 OA
ENDBRANCH  74  75
ENDBRANCH  73  74
ENDBRANCH  53  73
ENDBRANCH  49  53
ENDBRANCH  48  51
BRANCH  48  78
ATOM     78  CB  LEU A   4       7.940   2.017 -12.199  0.00  0.00    +0.029 C 
BRANCH  78  79
ATOM     79  CG  LEU A   4       9.456   2.235 -12.173  0.00  0.00    +0.002 C 
ATOM     80  CD2 LEU A   4      10.184   0.966 -12.485  0.00  0.00    +0.000 C 
ATOM     81  CD1 LEU A   4       9.854   3.305 -13.196  0.00  0.00    +0.000 C 
ENDBRANCH  78  79
ENDBRANCH  48  78
ENDBRANCH  44  48
ENDBRANCH  43  45
ENDBRANCH  39  43
ENDBRANCH   1  40
BRANCH   1  82
ATOM     82  CB  PHE A   6       3.669  -1.329 -14.118  0.00  0.00    +0.055 C 
BRANCH  82  83
ATOM     83  CG  PHE A   6       5.136  -1.360 -14.421  0.00  0.00    -0.020 A 
ATOM     84  CD2 PHE A   6       5.818  -2.575 -14.564  0.00  0.00    -0.004 A 
ATOM     85  CE2 PHE A   6       7.149  -2.596 -14.891  0.00  0.00    -0.000 A 
ATOM     86  CZ  PHE A   6       7.854  -1.437 -15.053  0.00  0.00    -0.000 A 
ATOM     87  CE1 PHE A   6       7.204  -0.221 -14.936  0.00  0.00    -0.000 A 
ATOM     88  CD1 PHE A   6       5.859  -0.181 -14.622  0.00  0.00    -0.004 A 
ENDBRANCH  82  83
ENDBRANCH   1  82
TORSDOF 36
REMARK  Name = ../refined-set-2016/2qbw/2qbw_pocket.pdb
REMARK  239 active torsions:
REMARK  status: ('A' for Active; 'I' for Inactive)
REMARK    1  A    between atoms: _1  and  _5
REMARK    2  A    between atoms: _5  and  _6
REMARK    3  A    between atoms: _5  and  _8
REMARK    4  A    between atoms: _8  and  _9
REMARK    5  A    between atoms: _12  and  _13
REMARK    6  A    between atoms: _18  and  _20
REMARK    7  A    between atoms: _20  and  _21
REMARK    8  A    between atoms: _20  and  _23
REMARK    9  A    between atoms: _23  and  _24
REMARK   10  A    between atoms: _24  and  _25
REMARK   11  A    between atoms: _28  and  _30
REMARK   12  A    between atoms: _30  and  _31
REMARK   13  A    between atoms: _30  and  _33
REMARK   14  A    between atoms: _33  and  _34
REMARK   15  A    between atoms: _37  and  _39
REMARK   16  A    between atoms: _39  and  _40
REMARK   17  A    between atoms: _42  and  _44
REMARK   18  A    between atoms: _44  and  _45
REMARK   19  A    between atoms: _44  and  _47
REMARK   20  A    between atoms: _47  and  _48
REMARK   21  A    between atoms: _54  and  _56
REMARK   22  A    between atoms: _56  and  _57
REMARK   23  A    between atoms: _56  and  _59
REMARK   24  A    between atoms: _59  and  _60
REMARK   25  A    between atoms: _62  and  _64
REMARK   26  A    between atoms: _64  and  _65
REMARK   27  A    between atoms: _64  and  _67
REMARK   28  A    between atoms: _67  and  _68
REMARK   29  A    between atoms: _71  and  _73
REMARK   30  A    between atoms: _73  and  _74
REMARK   31  A    between atoms: _73  and  _76
REMARK   32  A    between atoms: _76  and  _77
REMARK   33  A    between atoms: _79  and  _81
REMARK   34  A    between atoms: _81  and  _82
REMARK   35  A    between atoms: _84  and  _86
REMARK   36  A    between atoms: _86  and  _87
REMARK   37  A    between atoms: _89  and  _91
REMARK   38  A    between atoms: _91  and  _92
REMARK   39  A    between atoms: _94  and  _96
REMARK   40  A    between atoms: _96  and  _97
REMARK   41  A    between atoms: _96  and  _99
REMARK   42  A    between atoms: _99  and  _100
REMARK   43  A    between atoms: _100  and  _101
REMARK   44  A    between atoms: _101  and  _102
REMARK   45  A    between atoms: _111  and  _113
REMARK   46  A    between atoms: _113  and  _114
REMARK   47  A    between atoms: _116  and  _118
REMARK   48  A    between atoms: _118  and  _119
REMARK   49  A    between atoms: _118  and  _121
REMARK   50  A    between atoms: _121  and  _122
REMARK   51  A    between atoms: _128  and  _129
REMARK   52  A    between atoms: _134  and  _136
REMARK   53  A    between atoms: _136  and  _137
REMARK   54  A    between atoms: _136  and  _139
REMARK   55  A    between atoms: _139  and  _140
REMARK   56  A    between atoms: _146  and  _148
REMARK   57  A    between atoms: _148  and  _149
REMARK   58  A    between atoms: _148  and  _151
REMARK   59  A    between atoms: _151  and  _152
REMARK   60  A    between atoms: _155  and  _157
REMARK   61  A    between atoms: _157  and  _158
REMARK   62  A    between atoms: _157  and  _160
REMARK   63  A    between atoms: _160  and  _161
REMARK   64  A    between atoms: _167  and  _169
REMARK   65  A    between atoms: _169  and  _170
REMARK   66  A    between atoms: _169  and  _172
REMARK   67  A    between atoms: _175  and  _177
REMARK   68  A    between atoms: _177  and  _178
REMARK   69  A    between atoms: _177  and  _180
REMARK   70  A    between atoms: _180  and  _181
REMARK   71  A    between atoms: _184  and  _186
REMARK   72  A    between atoms: _186  and  _187
REMARK   73  A    between atoms: _186  and  _189
REMARK   74  A    between atoms: _189  and  _190
REMARK   75  A    between atoms: _190  and  _191
REMARK   76  A    between atoms: _191  and  _192
REMARK   77  A    between atoms: _201  and  _203
REMARK   78  A    between atoms: _203  and  _204
REMARK   79  A    between atoms: _203  and  _206
REMARK   80  A    between atoms: _209  and  _211
REMARK   81  A    between atoms: _211  and  _212
REMARK   82  A    between atoms: _211  and  _214
REMARK   83  A    between atoms: _214  and  _215
REMARK   84  A    between atoms: _215  and  _216
REMARK   85  A    between atoms: _222  and  _223
REMARK   86  A    between atoms: _229  and  _230
REMARK   87  A    between atoms: _235  and  _237
REMARK   88  A    between atoms: _237  and  _238
REMARK   89  A    between atoms: _241  and  _243
REMARK   90  A    between atoms: _243  and  _244
REMARK   91  A    between atoms: _243  and  _246
REMARK   92  A    between atoms: _246  and  _247
REMARK   93  A    between atoms: _250  and  _252
REMARK   94  A    between atoms: _252  and  _253
REMARK   95  A    between atoms: _252  and  _255
REMARK   96  A    between atoms: _255  and  _256
REMARK   97  A    between atoms: _259  and  _261
REMARK   98  A    between atoms: _261  and  _262
REMARK   99  A    between atoms: _261  and  _264
REMARK  100  A    between atoms: _264  and  _265
REMARK  101  A    between atoms: _271  and  _273
REMARK  102  A    between atoms: _273  and  _274
REMARK  103  A    between atoms: _273  and  _276
REMARK  104  A    between atoms: _276  and  _277
REMARK  105  A    between atoms: _282  and  _284
REMARK  106  A    between atoms: _284  and  _285
REMARK  107  A    between atoms: _287  and  _289
REMARK  108  A    between atoms: _289  and  _290
REMARK  109  A    between atoms: _293  and  _295
REMARK  110  A    between atoms: _295  and  _296
REMARK  111  A    between atoms: _295  and  _298
REMARK  112  A    between atoms: _301  and  _303
REMARK  113  A    between atoms: _303  and  _304
REMARK  114  A    between atoms: _303  and  _306
REMARK  115  A    between atoms: _306  and  _307
REMARK  116  A    between atoms: _309  and  _311
REMARK  117  A    between atoms: _311  and  _312
REMARK  118  A    between atoms: _311  and  _314
REMARK  119  A    between atoms: _314  and  _315
REMARK  120  A    between atoms: _318  and  _320
REMARK  121  A    between atoms: _320  and  _321
REMARK  122  A    between atoms: _320  and  _323
REMARK  123  A    between atoms: _323  and  _324
REMARK  124  A    between atoms: _327  and  _329
REMARK  125  A    between atoms: _329  and  _330
REMARK  126  A    between atoms: _329  and  _332
REMARK  127  A    between atoms: _332  and  _333
REMARK  128  A    between atoms: _333  and  _334
REMARK  129  A    between atoms: _334  and  _335
REMARK  130  A    between atoms: _335  and  _336
REMARK  131  A    between atoms: _340  and  _342
REMARK  132  A    between atoms: _342  and  _343
REMARK  133  A    between atoms: _342  and  _345
REMARK  134  A    between atoms: _345  and  _346
REMARK  135  A    between atoms: _349  and  _351
REMARK  136  A    between atoms: _351  and  _352
REMARK  137  A    between atoms: _351  and  _354
REMARK  138  A    between atoms: _354  and  _355
REMARK  139  A    between atoms: _361  and  _363
REMARK  140  A    between atoms: _363  and  _364
REMARK  141  A    between atoms: _363  and  _366
REMARK  142  A    between atoms: _369  and  _371
REMARK  143  A    between atoms: _371  and  _372
REMARK  144  A    between atoms: _371  and  _374
REMARK  145  A    between atoms: _374  and  _375
REMARK  146  A    between atoms: _378  and  _380
REMARK  147  A    between atoms: _380  and  _381
REMARK  148  A    between atoms: _380  and  _383
REMARK  149  A    between atoms: _386  and  _388
REMARK  150  A    between atoms: _388  and  _389
REMARK  151  A    between atoms: _388  and  _391
REMARK  152  A    between atoms: _391  and  _392
REMARK  153  A    between atoms: _392  and  _393
REMARK  154  A    between atoms: _393  and  _394
REMARK  155  A    between atoms: _394  and  _395
REMARK  156  A    between atoms: _399  and  _401
REMARK  157  A    between atoms: _401  and  _402
REMARK  158  A    between atoms: _401  and  _404
REMARK  159  A    between atoms: _404  and  _405
REMARK  160  A    between atoms: _408  and  _410
REMARK  161  A    between atoms: _410  and  _411
REMARK  162  A    between atoms: _410  and  _413
REMARK  163  A    between atoms: _413  and  _414
REMARK  164  A    between atoms: _419  and  _420
REMARK  165  A    between atoms: _422  and  _424
REMARK  166  A    between atoms: _424  and  _425
REMARK  167  A    between atoms: _424  and  _427
REMARK  168  A    between atoms: _427  and  _428
REMARK  169  A    between atoms: _433  and  _434
REMARK  170  A    between atoms: _436  and  _438
REMARK  171  A    between atoms: _438  and  _439
REMARK  172  A    between atoms: _441  and  _443
REMARK  173  A    between atoms: _443  and  _444
REMARK  174  A    between atoms: _443  and  _446
REMARK  175  A    between atoms: _449  and  _451
REMARK  176  A    between atoms: _451  and  _452
REMARK  177  A    between atoms: _451  and  _454
REMARK  178  A    between atoms: _454  and  _455
REMARK  179  A    between atoms: _457  and  _459
REMARK  180  A    between atoms: _459  and  _460
REMARK  181  A    between atoms: _459  and  _462
REMARK  182  A    between atoms: _462  and  _463
REMARK  183  A    between atoms: _468  and  _469
REMARK  184  A    between atoms: _471  and  _473
REMARK  185  A    between atoms: _473  and  _474
REMARK  186  A    between atoms: _473  and  _476
REMARK  187  A    between atoms: _476  and  _477
REMARK  188  A    between atoms: _482  and  _483
REMARK  189  A    between atoms: _485  and  _487
REMARK  190  A    between atoms: _487  and  _488
REMARK  191  A    between atoms: _487  and  _490
REMARK  192  A    between atoms: _490  and  _491
REMARK  193  A    between atoms: _494  and  _496
REMARK  194  A    between atoms: _496  and  _497
REMARK  195  A    between atoms: _496  and  _499
REMARK  196  A    between atoms: _503  and  _504
REMARK  197  A    between atoms: _509  and  _511
REMARK  198  A    between atoms: _511  and  _512
REMARK  199  A    between atoms: _511  and  _514
REMARK  200  A    between atoms: _514  and  _515
REMARK  201  A    between atoms: _520  and  _521
REMARK  202  A    between atoms: _523  and  _525
REMARK  203  A    between atoms: _525  and  _526
REMARK  204  A    between atoms: _525  and  _528
REMARK  205  A    between atoms: _528  and  _529
REMARK  206  A    between atoms: _534  and  _535
REMARK  207  A    between atoms: _537  and  _539
REMARK  208  A    between atoms: _539  and  _540
REMARK  209  A    between atoms: _539  and  _542
REMARK  210  A    between atoms: _542  and  _543
REMARK  211  A    between atoms: _545  and  _547
REMARK  212  A    between atoms: _547  and  _548
REMARK  213  A    between atoms: _547  and  _550
REMARK  214  A    between atoms: _550  and  _551
REMARK  215  A    between atoms: _554  and  _556
REMARK  216  A    between atoms: _556  and  _557
REMARK  217  A    between atoms: _556  and  _559
REMARK  218  A    between atoms: _559  and  _560
REMARK  219  A    between atoms: _565  and  _566
REMARK  220  A    between atoms: _568  and  _570
REMARK  221  A    between atoms: _570  and  _571
REMARK  222  A    between atoms: _570  and  _573
REMARK  223  A    between atoms: _573  and  _574
REMARK  224  A    between atoms: _579  and  _580
REMARK  225  A    between atoms: _582  and  _584
REMARK  226  A    between atoms: _584  and  _585
REMARK  227  A    between atoms: _587  and  _589
REMARK  228  A    between atoms: _589  and  _590
REMARK  229  A    between atoms: _589  and  _592
REMARK  230  A    between atoms: _592  and  _593
REMARK  231  A    between atoms: _595  and  _597
REMARK  232  A    between atoms: _597  and  _598
REMARK  233  A    between atoms: _597  and  _600
REMARK  234  A    between atoms: _600  and  _601
REMARK  235  A    between atoms: _606  and  _608
REMARK  236  A    between atoms: _608  and  _609
REMARK  237  A    between atoms: _608  and  _611
REMARK  238  A    between atoms: _611  and  _612
REMARK  239  A    between atoms: _617  and  _618
REMARK                            x       y       z     vdW  Elec       q    Type
REMARK                         _______ _______ _______ _____ _____    ______ ____
ROOT
ATOM      1  C   GLY A   3       4.721 -16.530 -14.159  0.00  0.00    +0.243 C 
ATOM      2  O   GLY A   3       4.727 -15.610 -13.395  0.00  0.00    -0.273 OA
ATOM      3  N   ASN A   4       4.040 -16.543 -15.290  0.00  0.00    -0.297 N 
ATOM      4  H   ASN A   4       4.066 -17.390 -15.893  0.00  0.00    +0.150 HD
ENDROOT
BRANCH   1   5
ATOM      5  CA  GLY A   3       5.473 -17.794 -13.818  0.00  0.00    +0.176 C 
BRANCH   5   8
ATOM      6  C   ARG A   2       5.345 -18.120 -11.434  0.00  0.00    +0.241 C 
ATOM      7  O   ARG A   2       4.155 -18.423 -11.505  0.00  0.00    -0.273 OA
ATOM      8  N   GLY A   3       6.050 -17.773 -12.513  0.00  0.00    -0.295 N 
ATOM      9  H   GLY A   3       7.042 -17.481 -12.400  0.00  0.00    +0.150 HD
BRANCH   6  10
ATOM     10  CA  ARG A   2       6.072 -18.143 -10.090  0.00  0.00    +0.149 C 
BRANCH  10  12
ATOM     11  C   GLY A   1       8.492 -18.305 -10.382  0.00  0.00    +0.240 C 
ATOM     12  N   ARG A   2       7.422 -17.565 -10.129  0.00  0.00    -0.297 N 
ATOM     13  H   ARG A   2       7.541 -16.547  -9.953  0.00  0.00    +0.150 HD
ATOM     14  O   GLY A   1       8.421 -19.523 -10.635  0.00  0.00    -0.274 OA
BRANCH  11  15
ATOM     15  CA  GLY A   1       9.811 -17.553 -10.380  0.00  0.00    +0.169 C 
BRANCH  15  16
ATOM     16  N   GLY A   1      10.935 -18.284 -10.923  0.00  0.00    -0.236 NA
ATOM     17  H   GLY A   1      11.230 -18.082 -11.900  0.00  0.00    +0.142 HD
ENDBRANCH  15  16
ENDBRANCH  11  15
ENDBRANCH  10  12
BRANCH  10  18
ATOM     18  CB  ARG A   2       5.261 -17.396  -9.026  0.00  0.00    +0.033 C 
BRANCH  18  19
ATOM     19  CG  ARG A   2       5.724 -17.688  -7.621  0.00  0.00    +0.045 C 
BRANCH  19  20
ATOM     20  CD  ARG A   2       4.772 -17.063  -6.612  0.00  0.00    +0.174 C 
BRANCH  20  21
ATOM     21  NE  ARG A   2       5.161 -17.377  -5.254  0.00  0.00    -0.265 N 
ATOM     22  CZ  ARG A   2       4.575 -16.882  -4.169  0.00  0.00    +0.342 C 
ATOM     23  NH2 ARG A   2       5.024 -17.226  -2.980  0.00  0.00    -0.292 N 
ATOM     24 HH21 ARG A   2       4.573 -16.845  -2.124  0.00  0.00    +0.255 HD
ATOM     25 HH22 ARG A   2       5.829 -17.879  -2.897  0.00  0.00    +0.255 HD
ATOM     26  NH1 ARG A   2       3.545 -16.051  -4.273  0.00  0.00    -0.292 N 
ATOM     27 HH11 ARG A   2       3.095 -15.671  -3.416  0.00  0.00    +0.255 HD
ATOM     28 HH12 ARG A   2       3.188 -15.780  -5.212  0.00  0.00    +0.255 HD
ATOM     29  HE  ARG A   2       5.954 -18.036  -5.118  0.00  0.00    +0.259 HD
ENDBRANCH  20  21
ENDBRANCH  19  20
ENDBRANCH  18  19
ENDBRANCH  10  18
ENDBRANCH   6  10
ENDBRANCH   5   8
ENDBRANCH   1   5
BRANCH   3  30
ATOM     30  CA  ASN A   4       3.257 -15.396 -15.704  0.00  0.00    +0.158 C 
BRANCH  30  31
ATOM     31  C   ASN A   4       1.982 -15.824 -16.414  0.00  0.00    +0.244 C 
ATOM     32  N   PRO A   5       0.963 -14.960 -16.386  0.00  0.00    -0.272 N 
ATOM     33  CD  PRO A   5       0.921 -13.662 -15.686  0.00  0.00    +0.094 C 
ATOM     34  CG  PRO A   5      -0.456 -13.147 -15.989  0.00  0.00    +0.024 C 
ATOM     35  CB  PRO A   5      -1.272 -14.344 -16.235  0.00  0.00    +0.031 C 
ATOM     36  CA  PRO A   5      -0.331 -15.269 -17.001  0.00  0.00    +0.152 C 
ATOM     37  O   ASN A   4       1.908 -16.921 -16.994  0.00  0.00    -0.273 OA
BRANCH  36  38
ATOM     38  C   PRO A   5      -0.467 -15.069 -18.505  0.00  0.00    +0.241 C 
ATOM     39  O   PRO A   5      -1.560 -15.282 -19.076  0.00  0.00    -0.273 OA
ATOM     40  N   PHE A   6       0.627 -14.735 -19.167  0.00  0.00    -0.298 N 
ATOM     41  H   PHE A   6       1.527 -14.671 -18.650  0.00  0.00    +0.150 HD
BRANCH  40  42
ATOM     42  CA  PHE A   6       0.614 -14.456 -20.580  0.00  0.00    +0.141 C 
BRANCH  42  43
ATOM     43  C   PHE A   6       1.155 -15.594 -21.429  0.00  0.00    +0.227 C 
ATOM     44  O   PHE A   6       0.527 -15.952 -22.443  0.00  0.00    -0.286 OA
ENDBRANCH  42  43
BRANCH  42  45
ATOM     45  CB  PHE A   6       1.350 -13.148 -20.849  0.00  0.00    +0.054 C 
BRANCH  45  46
ATOM     46  CG  PHE A   6       0.907 -12.060 -19.946  0.00  0.00    -0.020 A 
ATOM     47  CD2 PHE A   6       1.701 -11.647 -18.900  0.00  0.00    -0.004 A 
ATOM     48  CE2 PHE A   6       1.280 -10.661 -18.026  0.00  0.00    -0.000 A 
ATOM     49  CZ  PHE A   6       0.015 -10.073 -18.201  0.00  0.00    -0.000 A 
ATOM     50  CE1 PHE A   6      -0.780 -10.491 -19.217  0.00  0.00    -0.000 A 
ATOM     51  CD1 PHE A   6      -0.342 -11.480 -20.101  0.00  0.00    -0.004 A 
ENDBRANCH  45  46
ENDBRANCH  42  45
ENDBRANCH  40  42
ENDBRANCH  36  38
ENDBRANCH  30  31
BRANCH  30  52
ATOM     52  CB  ASN A   4       4.106 -14.488 -16.605  0.00  0.00    +0.114 C 
BRANCH  52  53
ATOM     53  CG  ASN A   4       4.358 -15.091 -17.953  0.00  0.00    +0.222 C 
ATOM     54  OD1 ASN A   4       5.355 -15.812 -18.163  0.00  0.00    -0.275 OA
ATOM     55  ND2 ASN A   4       3.446 -14.847 -18.878  0.00  0.00    -0.329 N 
ATOM     56 HD21 ASN A   4       2.631 -14.240 -18.657  0.00  0.00    +0.145 HD
ATOM     57 HD22 ASN A   4       3.543 -15.262 -19.826  0.00  0.00    +0.145 HD
ENDBRANCH  52  53
ENDBRANCH  30  52
ENDBRANCH   3  30
TORSDOF 19
REMARK  Name = ../refined-set-2016/2qbw/2qbw_pocket.pdb
REMARK  239 active torsions:
REMARK  status: ('A' for Active; 'I' for Inactive)
REMARK    1  A    between atoms: _1  and  _5
REMARK    2  A    between atoms: _5  and  _6
REMARK    3  A    between atoms: _5  and  _8
REMARK    4  A    between atoms: _8  and  _9
REMARK    5  A    between atoms: _12  and  _13
REMARK    6  A    between atoms: _18  and  _20
REMARK    7  A    between atoms: _20  and  _21
REMARK    8  A    between atoms: _20  and  _23
REMARK    9  A    between atoms: _23  and  _24
REMARK   10  A    between atoms: _24  and  _25
REMARK   11  A    between atoms: _28  and  _30
REMARK   12  A    between atoms: _30  and  _31
REMARK   13  A    between atoms: _30  and  _33
REMARK   14  A    between atoms: _33  and  _34
REMARK   15  A    between atoms: _37  and  _39
REMARK   16  A    between atoms: _39  and  _40
REMARK   17  A    between atoms: _42  and  _44
REMARK   18  A    between atoms: _44  and  _45
REMARK   19  A    between atoms: _44  and  _47
REMARK   20  A    between atoms: _47  and  _48
REMARK   21  A    between atoms: _54  and  _56
REMARK   22  A    between atoms: _56  and  _57
REMARK   23  A    between atoms: _56  and  _59
REMARK   24  A    between atoms: _59  and  _60
REMARK   25  A    between atoms: _62  and  _64
REMARK   26  A    between atoms: _64  and  _65
REMARK   27  A    between atoms: _64  and  _67
REMARK   28  A    between atoms: _67  and  _68
REMARK   29  A    between atoms: _71  and  _73
REMARK   30  A    between atoms: _73  and  _74
REMARK   31  A    between atoms: _73  and  _76
REMARK   32  A    between atoms: _76  and  _77
REMARK   33  A    between atoms: _79  and  _81
REMARK   34  A    between atoms: _81  and  _82
REMARK   35  A    between atoms: _84  and  _86
REMARK   36  A    between atoms: _86  and  _87
REMARK   37  A    between atoms: _89  and  _91
REMARK   38  A    between atoms: _91  and  _92
REMARK   39  A    between atoms: _94  and  _96
REMARK   40  A    between atoms: _96  and  _97
REMARK   41  A    between atoms: _96  and  _99
REMARK   42  A    between atoms: _99  and  _100
REMARK   43  A    between atoms: _100  and  _101
REMARK   44  A    between atoms: _101  and  _102
REMARK   45  A    between atoms: _111  and  _113
REMARK   46  A    between atoms: _113  and  _114
REMARK   47  A    between atoms: _116  and  _118
REMARK   48  A    between atoms: _118  and  _119
REMARK   49  A    between atoms: _118  and  _121
REMARK   50  A    between atoms: _121  and  _122
REMARK   51  A    between atoms: _128  and  _129
REMARK   52  A    between atoms: _134  and  _136
REMARK   53  A    between atoms: _136  and  _137
REMARK   54  A    between atoms: _136  and  _139
REMARK   55  A    between atoms: _139  and  _140
REMARK   56  A    between atoms: _146  and  _148
REMARK   57  A    between atoms: _148  and  _149
REMARK   58  A    between atoms: _148  and  _151
REMARK   59  A    between atoms: _151  and  _152
REMARK   60  A    between atoms: _155  and  _157
REMARK   61  A    between atoms: _157  and  _158
REMARK   62  A    between atoms: _157  and  _160
REMARK   63  A    between atoms: _160  and  _161
REMARK   64  A    between atoms: _167  and  _169
REMARK   65  A    between atoms: _169  and  _170
REMARK   66  A    between atoms: _169  and  _172
REMARK   67  A    between atoms: _175  and  _177
REMARK   68  A    between atoms: _177  and  _178
REMARK   69  A    between atoms: _177  and  _180
REMARK   70  A    between atoms: _180  and  _181
REMARK   71  A    between atoms: _184  and  _186
REMARK   72  A    between atoms: _186  and  _187
REMARK   73  A    between atoms: _186  and  _189
REMARK   74  A    between atoms: _189  and  _190
REMARK   75  A    between atoms: _190  and  _191
REMARK   76  A    between atoms: _191  and  _192
REMARK   77  A    between atoms: _201  and  _203
REMARK   78  A    between atoms: _203  and  _204
REMARK   79  A    between atoms: _203  and  _206
REMARK   80  A    between atoms: _209  and  _211
REMARK   81  A    between atoms: _211  and  _212
REMARK   82  A    between atoms: _211  and  _214
REMARK   83  A    between atoms: _214  and  _215
REMARK   84  A    between atoms: _215  and  _216
REMARK   85  A    between atoms: _222  and  _223
REMARK   86  A    between atoms: _229  and  _230
REMARK   87  A    between atoms: _235  and  _237
REMARK   88  A    between atoms: _237  and  _238
REMARK   89  A    between atoms: _241  and  _243
REMARK   90  A    between atoms: _243  and  _244
REMARK   91  A    between atoms: _243  and  _246
REMARK   92  A    between atoms: _246  and  _247
REMARK   93  A    between atoms: _250  and  _252
REMARK   94  A    between atoms: _252  and  _253
REMARK   95  A    between atoms: _252  and  _255
REMARK   96  A    between atoms: _255  and  _256
REMARK   97  A    between atoms: _259  and  _261
REMARK   98  A    between atoms: _261  and  _262
REMARK   99  A    between atoms: _261  and  _264
REMARK  100  A    between atoms: _264  and  _265
REMARK  101  A    between atoms: _271  and  _273
REMARK  102  A    between atoms: _273  and  _274
REMARK  103  A    between atoms: _273  and  _276
REMARK  104  A    between atoms: _276  and  _277
REMARK  105  A    between atoms: _282  and  _284
REMARK  106  A    between atoms: _284  and  _285
REMARK  107  A    between atoms: _287  and  _289
REMARK  108  A    between atoms: _289  and  _290
REMARK  109  A    between atoms: _293  and  _295
REMARK  110  A    between atoms: _295  and  _296
REMARK  111  A    between atoms: _295  and  _298
REMARK  112  A    between atoms: _301  and  _303
REMARK  113  A    between atoms: _303  and  _304
REMARK  114  A    between atoms: _303  and  _306
REMARK  115  A    between atoms: _306  and  _307
REMARK  116  A    between atoms: _309  and  _311
REMARK  117  A    between atoms: _311  and  _312
REMARK  118  A    between atoms: _311  and  _314
REMARK  119  A    between atoms: _314  and  _315
REMARK  120  A    between atoms: _318  and  _320
REMARK  121  A    between atoms: _320  and  _321
REMARK  122  A    between atoms: _320  and  _323
REMARK  123  A    between atoms: _323  and  _324
REMARK  124  A    between atoms: _327  and  _329
REMARK  125  A    between atoms: _329  and  _330
REMARK  126  A    between atoms: _329  and  _332
REMARK  127  A    between atoms: _332  and  _333
REMARK  128  A    between atoms: _333  and  _334
REMARK  129  A    between atoms: _334  and  _335
REMARK  130  A    between atoms: _335  and  _336
REMARK  131  A    between atoms: _340  and  _342
REMARK  132  A    between atoms: _342  and  _343
REMARK  133  A    between atoms: _342  and  _345
REMARK  134  A    between atoms: _345  and  _346
REMARK  135  A    between atoms: _349  and  _351
REMARK  136  A    between atoms: _351  and  _352
REMARK  137  A    between atoms: _351  and  _354
REMARK  138  A    between atoms: _354  and  _355
REMARK  139  A    between atoms: _361  and  _363
REMARK  140  A    between atoms: _363  and  _364
REMARK  141  A    between atoms: _363  and  _366
REMARK  142  A    between atoms: _369  and  _371
REMARK  143  A    between atoms: _371  and  _372
REMARK  144  A    between atoms: _371  and  _374
REMARK  145  A    between atoms: _374  and  _375
REMARK  146  A    between atoms: _378  and  _380
REMARK  147  A    between atoms: _380  and  _381
REMARK  148  A    between atoms: _380  and  _383
REMARK  149  A    between atoms: _386  and  _388
REMARK  150  A    between atoms: _388  and  _389
REMARK  151  A    between atoms: _388  and  _391
REMARK  152  A    between atoms: _391  and  _392
REMARK  153  A    between atoms: _392  and  _393
REMARK  154  A    between atoms: _393  and  _394
REMARK  155  A    between atoms: _394  and  _395
REMARK  156  A    between atoms: _399  and  _401
REMARK  157  A    between atoms: _401  and  _402
REMARK  158  A    between atoms: _401  and  _404
REMARK  159  A    between atoms: _404  and  _405
REMARK  160  A    between atoms: _408  and  _410
REMARK  161  A    between atoms: _410  and  _411
REMARK  162  A    between atoms: _410  and  _413
REMARK  163  A    between atoms: _413  and  _414
REMARK  164  A    between atoms: _419  and  _420
REMARK  165  A    between atoms: _422  and  _424
REMARK  166  A    between atoms: _424  and  _425
REMARK  167  A    between atoms: _424  and  _427
REMARK  168  A    between atoms: _427  and  _428
REMARK  169  A    between atoms: _433  and  _434
REMARK  170  A    between atoms: _436  and  _438
REMARK  171  A    between atoms: _438  and  _439
REMARK  172  A    between atoms: _441  and  _443
REMARK  173  A    between atoms: _443  and  _444
REMARK  174  A    between atoms: _443  and  _446
REMARK  175  A    between atoms: _449  and  _451
REMARK  176  A    between atoms: _451  and  _452
REMARK  177  A    between atoms: _451  and  _454
REMARK  178  A    between atoms: _454  and  _455
REMARK  179  A    between atoms: _457  and  _459
REMARK  180  A    between atoms: _459  and  _460
REMARK  181  A    between atoms: _459  and  _462
REMARK  182  A    between atoms: _462  and  _463
REMARK  183  A    between atoms: _468  and  _469
REMARK  184  A    between atoms: _471  and  _473
REMARK  185  A    between atoms: _473  and  _474
REMARK  186  A    between atoms: _473  and  _476
REMARK  187  A    between atoms: _476  and  _477
REMARK  188  A    between atoms: _482  and  _483
REMARK  189  A    between atoms: _485  and  _487
REMARK  190  A    between atoms: _487  and  _488
REMARK  191  A    between atoms: _487  and  _490
REMARK  192  A    between atoms: _490  and  _491
REMARK  193  A    between atoms: _494  and  _496
REMARK  194  A    between atoms: _496  and  _497
REMARK  195  A    between atoms: _496  and  _499
REMARK  196  A    between atoms: _503  and  _504
REMARK  197  A    between atoms: _509  and  _511
REMARK  198  A    between atoms: _511  and  _512
REMARK  199  A    between atoms: _511  and  _514
REMARK  200  A    between atoms: _514  and  _515
REMARK  201  A    between atoms: _520  and  _521
REMARK  202  A    between atoms: _523  and  _525
REMARK  203  A    between atoms: _525  and  _526
REMARK  204  A    between atoms: _525  and  _528
REMARK  205  A    between atoms: _528  and  _529
REMARK  206  A    between atoms: _534  and  _535
REMARK  207  A    between atoms: _537  and  _539
REMARK  208  A    between atoms: _539  and  _540
REMARK  209  A    between atoms: _539  and  _542
REMARK  210  A    between atoms: _542  and  _543
REMARK  211  A    between atoms: _545  and  _547
REMARK  212  A    between atoms: _547  and  _548
REMARK  213  A    between atoms: _547  and  _550
REMARK  214  A    between atoms: _550  and  _551
REMARK  215  A    between atoms: _554  and  _556
REMARK  216  A    between atoms: _556  and  _557
REMARK  217  A    between atoms: _556  and  _559
REMARK  218  A    between atoms: _559  and  _560
REMARK  219  A    between atoms: _565  and  _566
REMARK  220  A    between atoms: _568  and  _570
REMARK  221  A    between atoms: _570  and  _571
REMARK  222  A    between atoms: _570  and  _573
REMARK  223  A    between atoms: _573  and  _574
REMARK  224  A    between atoms: _579  and  _580
REMARK  225  A    between atoms: _582  and  _584
REMARK  226  A    between atoms: _584  and  _585
REMARK  227  A    between atoms: _587  and  _589
REMARK  228  A    between atoms: _589  and  _590
REMARK  229  A    between atoms: _589  and  _592
REMARK  230  A    between atoms: _592  and  _593
REMARK  231  A    between atoms: _595  and  _597
REMARK  232  A    between atoms: _597  and  _598
REMARK  233  A    between atoms: _597  and  _600
REMARK  234  A    between atoms: _600  and  _601
REMARK  235  A    between atoms: _606  and  _608
REMARK  236  A    between atoms: _608  and  _609
REMARK  237  A    between atoms: _608  and  _611
REMARK  238  A    between atoms: _611  and  _612
REMARK  239  A    between atoms: _617  and  _618
REMARK                            x       y       z     vdW  Elec       q    Type
REMARK                         _______ _______ _______ _____ _____    ______ ____
ROOT
ATOM      1  CA  ARG A   5      -0.853  -4.757 -13.909  0.00  0.00    +0.149 C 
ENDROOT
BRANCH   1   2
ATOM      2  C   ARG A   5      -0.217  -3.381 -14.022  0.00  0.00    +0.241 C 
ATOM      3  O   ARG A   5       0.939  -3.192 -13.659  0.00  0.00    -0.273 OA
ATOM      4  N   VAL A   6      -0.978  -2.425 -14.533  0.00  0.00    -0.297 N 
ATOM      5  H   VAL A   6      -1.950  -2.653 -14.824  0.00  0.00    +0.150 HD
BRANCH   4   6
ATOM      6  CA  VAL A   6      -0.490  -1.066 -14.697  0.00  0.00    +0.149 C 
BRANCH   6   7
ATOM      7  C   VAL A   6      -1.465  -0.119 -13.998  0.00  0.00    +0.241 C 
ATOM      8  N   GLN A   7      -0.933   0.717 -13.125  0.00  0.00    -0.297 N 
ATOM      9  H   GLN A   7       0.090   0.671 -12.942  0.00  0.00    +0.150 HD
ATOM     10  O   VAL A   6      -2.678  -0.173 -14.242  0.00  0.00    -0.273 OA
BRANCH   8  11
ATOM     11  CA  GLN A   7      -1.737   1.705 -12.407  0.00  0.00    +0.149 C 
BRANCH  11  12
ATOM     12  C   GLN A   7      -2.256   2.782 -13.365  0.00  0.00    +0.244 C 
ATOM     13  N   PRO A   8      -3.579   2.935 -13.435  0.00  0.00    -0.273 N 
ATOM     14  CD  PRO A   8      -4.667   2.171 -12.801  0.00  0.00    +0.094 C 
ATOM     15  CG  PRO A   8      -5.808   2.417 -13.724  0.00  0.00    +0.024 C 
ATOM     16  CB  PRO A   8      -5.625   3.829 -14.154  0.00  0.00    +0.030 C 
ATOM     17  CA  PRO A   8      -4.102   3.978 -14.309  0.00  0.00    +0.140 C 
ATOM     18  O   GLN A   7      -1.472   3.481 -14.014  0.00  0.00    -0.273 OA
BRANCH  17  19
ATOM     19  C   PRO A   8      -3.650   5.367 -13.871  0.00  0.00    +0.227 C 
ATOM     20  O   PRO A   8      -3.526   5.636 -12.693  0.00  0.00    -0.286 OA
ENDBRANCH  17  19
ENDBRANCH  11  12
BRANCH  11  21
ATOM     21  CB  GLN A   7      -0.934   2.342 -11.293  0.00  0.00    +0.039 C 
BRANCH  21  22
ATOM     22  CG  GLN A   7      -1.718   3.406 -10.521  0.00  0.00    +0.087 C 
BRANCH  22  23
ATOM     23  CD  GLN A   7      -0.950   3.991  -9.381  0.00  0.00    +0.219 C 
ATOM     24  NE2 GLN A   7      -1.655   4.269  -8.289  0.00  0.00    -0.329 N 
ATOM     25 HE21 GLN A   7      -1.192   4.712  -7.470  0.00  0.00    +0.145 HD
ATOM     26 HE22 GLN A   7      -2.670   4.044  -8.254  0.00  0.00    +0.145 HD
ATOM     27  OE1 GLN A   7       0.254   4.237  -9.475  0.00  0.00    -0.275 OA
ENDBRANCH  22  23
ENDBRANCH  21  22
ENDBRANCH  11  21
ENDBRANCH   8  11
ENDBRANCH   6   7
BRANCH   6  28
ATOM     28  CB  VAL A   6      -0.387  -0.712 -16.169  0.00  0.00    +0.027 C 
ATOM     29  CG2 VAL A   6       0.125   0.733 -16.333  0.00  0.00    +0.002 C 
ATOM     30  CG1 VAL A   6       0.531  -1.683 -16.914  0.00  0.00    +0.002 C 
ENDBRANCH   6  28
ENDBRANCH   4   6
ENDBRANCH   1   2
BRANCH   1  32
ATOM     31  C   THR A   4       0.094  -6.657 -15.092  0.00  0.00    +0.243 C 
ATOM     32  N   ARG A   5       0.183  -5.769 -14.116  0.00  0.00    -0.297 N 
ATOM     33  H   ARG A   5       1.007  -5.791 -13.482  0.00  0.00    +0.150 HD
ATOM     34  O   THR A   4      -0.921  -6.774 -15.816  0.00  0.00    -0.273 OA
BRANCH  31  35
ATOM     35  CA  THR A   4       1.296  -7.561 -15.346  0.00  0.00    +0.176 C 
BRANCH  35  37
ATOM     36  C   VAL A   3       3.057  -6.953 -16.918  0.00  0.00    +0.241 C 
ATOM     37  N   THR A   4       2.524  -6.834 -15.717  0.00  0.00    -0.295 N 
ATOM     38  H   THR A   4       2.980  -6.214 -15.017  0.00  0.00    +0.150 HD
ATOM     39  O   VAL A   3       2.519  -7.584 -17.849  0.00  0.00    -0.273 OA
BRANCH  36  40
ATOM     40  CA  VAL A   3       4.400  -6.290 -17.119  0.00  0.00    +0.149 C 
BRANCH  40  43
ATOM     41  C   PHE A   2       5.571  -8.404 -17.095  0.00  0.00    +0.241 C 
ATOM     42  O   PHE A   2       5.269  -8.590 -15.927  0.00  0.00    -0.273 OA
ATOM     43  N   VAL A   3       5.259  -7.280 -17.738  0.00  0.00    -0.297 N 
ATOM     44  H   VAL A   3       5.635  -7.111 -18.693  0.00  0.00    +0.150 HD
BRANCH  41  45
ATOM     45  CA  PHE A   2       6.278  -9.475 -17.891  0.00  0.00    +0.153 C 
BRANCH  45  47
ATOM     46  C   ILE A   1       8.703 -10.056 -17.703  0.00  0.00    +0.238 C 
ATOM     47  N   PHE A   2       7.468 -10.066 -17.186  0.00  0.00    -0.297 N 
ATOM     48  H   PHE A   2       7.325 -10.503 -16.253  0.00  0.00    +0.150 HD
ATOM     49  O   ILE A   1       8.989  -9.521 -18.810  0.00  0.00    -0.274 OA
BRANCH  46  50
ATOM     50  CA  ILE A   1       9.792 -10.746 -16.883  0.00  0.00    +0.145 C 
BRANCH  50  51
ATOM     51  N   ILE A   1      10.427 -11.700 -17.781  0.00  0.00    -0.238 NA
ATOM     52  H   ILE A   1      11.144 -11.339 -18.442  0.00  0.00    +0.142 HD
ENDBRANCH  50  51
BRANCH  50  53
ATOM     53  CB  ILE A   1      10.804  -9.700 -16.387  0.00  0.00    +0.025 C 
ATOM     54  CG2 ILE A   1      10.083  -8.561 -15.622  0.00  0.00    +0.002 C 
BRANCH  53  55
ATOM     55  CG1 ILE A   1      11.943 -10.320 -15.520  0.00  0.00    +0.002 C 
ATOM     56  CD1 ILE A   1      11.422 -10.940 -14.247  0.00  0.00    +0.000 C 
ENDBRANCH  53  55
ENDBRANCH  50  53
ENDBRANCH  46  50
ENDBRANCH  45  47
BRANCH  45  57
ATOM     57  CB  PHE A   2       5.263 -10.540 -18.210  0.00  0.00    +0.055 C 
BRANCH  57  58
ATOM     58  CG  PHE A   2       5.747 -11.483 -19.237  0.00  0.00    -0.020 A 
ATOM     59  CD2 PHE A   2       6.590 -12.543 -18.880  0.00  0.00    -0.004 A 
ATOM     60  CE2 PHE A   2       7.040 -13.403 -19.825  0.00  0.00    -0.000 A 
ATOM     61  CZ  PHE A   2       6.685 -13.231 -21.159  0.00  0.00    -0.000 A 
ATOM     62  CE1 PHE A   2       5.875 -12.224 -21.517  0.00  0.00    -0.000 A 
ATOM     63  CD1 PHE A   2       5.390 -11.335 -20.543  0.00  0.00    -0.004 A 
ENDBRANCH  57  58
ENDBRANCH  45  57
ENDBRANCH  41  45
ENDBRANCH  40  43
BRANCH  40  64
ATOM     64  CB  VAL A   3       4.242  -5.051 -18.057  0.00  0.00    +0.027 C 
ATOM     65  CG2 VAL A   3       3.221  -4.036 -17.510  0.00  0.00    +0.002 C 
ATOM     66  CG1 VAL A   3       5.588  -4.414 -18.257  0.00  0.00    +0.002 C 
ENDBRANCH  40  64
ENDBRANCH  36  40
ENDBRANCH  35  37
BRANCH  35  67
ATOM     67  CB  THR A   4       1.610  -8.534 -14.217  0.00  0.00    +0.137 C 
ATOM     68  CG2 THR A   4       0.436  -9.414 -13.888  0.00  0.00    +0.034 C 
BRANCH  67  69
ATOM     69  OG1 THR A   4       2.705  -9.340 -14.669  0.00  0.00    -0.382 OA
ATOM     70  HG1 THR A   4       3.483  -8.759 -14.863  0.00  0.00    +0.210 HD
ENDBRANCH  67  69
ENDBRANCH  35  67
ENDBRANCH  31  35
ENDBRANCH   1  32
BRANCH   1  71
ATOM     71  CB  ARG A   5      -1.524  -4.947 -12.542  0.00  0.00    +0.033 C 
BRANCH  71  72
ATOM     72  CG  ARG A   5      -2.181  -6.311 -12.385  0.00  0.00    +0.045 C 
BRANCH  72  73
ATOM     73  CD  ARG A   5      -2.781  -6.526 -10.950  0.00  0.00    +0.174 C 
BRANCH  73  74
ATOM     74  NE  ARG A   5      -3.779  -5.540 -10.747  0.00  0.00    -0.265 N 
ATOM     75  CZ  ARG A   5      -3.937  -4.726  -9.705  0.00  0.00    +0.342 C 
ATOM     76  NH2 ARG A   5      -3.230  -4.780  -8.573  0.00  0.00    -0.292 N 
ATOM     77 HH21 ARG A   5      -3.421  -4.102  -7.808  0.00  0.00    +0.255 HD
ATOM     78 HH22 ARG A   5      -2.489  -5.500  -8.457  0.00  0.00    +0.255 HD
ATOM     79  NH1 ARG A   5      -4.896  -3.851  -9.815  0.00  0.00    -0.292 N 
ATOM     80 HH11 ARG A   5      -5.080  -3.181  -9.041  0.00  0.00    +0.255 HD
ATOM     81 HH12 ARG A   5      -5.478  -3.823 -10.677  0.00  0.00    +0.255 HD
ATOM     82  HE  ARG A   5      -4.478  -5.439 -11.510  0.00  0.00    +0.259 HD
ENDBRANCH  73  74
ENDBRANCH  72  73
ENDBRANCH  71  72
ENDBRANCH   1  71
TORSDOF 30
REMARK  Name = ../refined-set-2016/2qbw/2qbw_pocket.pdb
REMARK  239 active torsions:
REMARK  status: ('A' for Active; 'I' for Inactive)
REMARK    1  A    between atoms: _1  and  _5
REMARK    2  A    between atoms: _5  and  _6
REMARK    3  A    between atoms: _5  and  _8
REMARK    4  A    between atoms: _8  and  _9
REMARK    5  A    between atoms: _12  and  _13
REMARK    6  A    between atoms: _18  and  _20
REMARK    7  A    between atoms: _20  and  _21
REMARK    8  A    between atoms: _20  and  _23
REMARK    9  A    between atoms: _23  and  _24
REMARK   10  A    between atoms: _24  and  _25
REMARK   11  A    between atoms: _28  and  _30
REMARK   12  A    between atoms: _30  and  _31
REMARK   13  A    between atoms: _30  and  _33
REMARK   14  A    between atoms: _33  and  _34
REMARK   15  A    between atoms: _37  and  _39
REMARK   16  A    between atoms: _39  and  _40
REMARK   17  A    between atoms: _42  and  _44
REMARK   18  A    between atoms: _44  and  _45
REMARK   19  A    between atoms: _44  and  _47
REMARK   20  A    between atoms: _47  and  _48
REMARK   21  A    between atoms: _54  and  _56
REMARK   22  A    between atoms: _56  and  _57
REMARK   23  A    between atoms: _56  and  _59
REMARK   24  A    between atoms: _59  and  _60
REMARK   25  A    between atoms: _62  and  _64
REMARK   26  A    between atoms: _64  and  _65
REMARK   27  A    between atoms: _64  and  _67
REMARK   28  A    between atoms: _67  and  _68
REMARK   29  A    between atoms: _71  and  _73
REMARK   30  A    between atoms: _73  and  _74
REMARK   31  A    between atoms: _73  and  _76
REMARK   32  A    between atoms: _76  and  _77
REMARK   33  A    between atoms: _79  and  _81
REMARK   34  A    between atoms: _81  and  _82
REMARK   35  A    between atoms: _84  and  _86
REMARK   36  A    between atoms: _86  and  _87
REMARK   37  A    between atoms: _89  and  _91
REMARK   38  A    between atoms: _91  and  _92
REMARK   39  A    between atoms: _94  and  _96
REMARK   40  A    between atoms: _96  and  _97
REMARK   41  A    between atoms: _96  and  _99
REMARK   42  A    between atoms: _99  and  _100
REMARK   43  A    between atoms: _100  and  _101
REMARK   44  A    between atoms: _101  and  _102
REMARK   45  A    between atoms: _111  and  _113
REMARK   46  A    between atoms: _113  and  _114
REMARK   47  A    between atoms: _116  and  _118
REMARK   48  A    between atoms: _118  and  _119
REMARK   49  A    between atoms: _118  and  _121
REMARK   50  A    between atoms: _121  and  _122
REMARK   51  A    between atoms: _128  and  _129
REMARK   52  A    between atoms: _134  and  _136
REMARK   53  A    between atoms: _136  and  _137
REMARK   54  A    between atoms: _136  and  _139
REMARK   55  A    between atoms: _139  and  _140
REMARK   56  A    between atoms: _146  and  _148
REMARK   57  A    between atoms: _148  and  _149
REMARK   58  A    between atoms: _148  and  _151
REMARK   59  A    between atoms: _151  and  _152
REMARK   60  A    between atoms: _155  and  _157
REMARK   61  A    between atoms: _157  and  _158
REMARK   62  A    between atoms: _157  and  _160
REMARK   63  A    between atoms: _160  and  _161
REMARK   64  A    between atoms: _167  and  _169
REMARK   65  A    between atoms: _169  and  _170
REMARK   66  A    between atoms: _169  and  _172
REMARK   67  A    between atoms: _175  and  _177
REMARK   68  A    between atoms: _177  and  _178
REMARK   69  A    between atoms: _177  and  _180
REMARK   70  A    between atoms: _180  and  _181
REMARK   71  A    between atoms: _184  and  _186
REMARK   72  A    between atoms: _186  and  _187
REMARK   73  A    between atoms: _186  and  _189
REMARK   74  A    between atoms: _189  and  _190
REMARK   75  A    between atoms: _190  and  _191
REMARK   76  A    between atoms: _191  and  _192
REMARK   77  A    between atoms: _201  and  _203
REMARK   78  A    between atoms: _203  and  _204
REMARK   79  A    between atoms: _203  and  _206
REMARK   80  A    between atoms: _209  and  _211
REMARK   81  A    between atoms: _211  and  _212
REMARK   82  A    between atoms: _211  and  _214
REMARK   83  A    between atoms: _214  and  _215
REMARK   84  A    between atoms: _215  and  _216
REMARK   85  A    between atoms: _222  and  _223
REMARK   86  A    between atoms: _229  and  _230
REMARK   87  A    between atoms: _235  and  _237
REMARK   88  A    between atoms: _237  and  _238
REMARK   89  A    between atoms: _241  and  _243
REMARK   90  A    between atoms: _243  and  _244
REMARK   91  A    between atoms: _243  and  _246
REMARK   92  A    between atoms: _246  and  _247
REMARK   93  A    between atoms: _250  and  _252
REMARK   94  A    between atoms: _252  and  _253
REMARK   95  A    between atoms: _252  and  _255
REMARK   96  A    between atoms: _255  and  _256
REMARK   97  A    between atoms: _259  and  _261
REMARK   98  A    between atoms: _261  and  _262
REMARK   99  A    between atoms: _261  and  _264
REMARK  100  A    between atoms: _264  and  _265
REMARK  101  A    between atoms: _271  and  _273
REMARK  102  A    between atoms: _273  and  _274
REMARK  103  A    between atoms: _273  and  _276
REMARK  104  A    between atoms: _276  and  _277
REMARK  105  A    between atoms: _282  and  _284
REMARK  106  A    between atoms: _284  and  _285
REMARK  107  A    between atoms: _287  and  _289
REMARK  108  A    between atoms: _289  and  _290
REMARK  109  A    between atoms: _293  and  _295
REMARK  110  A    between atoms: _295  and  _296
REMARK  111  A    between atoms: _295  and  _298
REMARK  112  A    between atoms: _301  and  _303
REMARK  113  A    between atoms: _303  and  _304
REMARK  114  A    between atoms: _303  and  _306
REMARK  115  A    between atoms: _306  and  _307
REMARK  116  A    between atoms: _309  and  _311
REMARK  117  A    between atoms: _311  and  _312
REMARK  118  A    between atoms: _311  and  _314
REMARK  119  A    between atoms: _314  and  _315
REMARK  120  A    between atoms: _318  and  _320
REMARK  121  A    between atoms: _320  and  _321
REMARK  122  A    between atoms: _320  and  _323
REMARK  123  A    between atoms: _323  and  _324
REMARK  124  A    between atoms: _327  and  _329
REMARK  125  A    between atoms: _329  and  _330
REMARK  126  A    between atoms: _329  and  _332
REMARK  127  A    between atoms: _332  and  _333
REMARK  128  A    between atoms: _333  and  _334
REMARK  129  A    between atoms: _334  and  _335
REMARK  130  A    between atoms: _335  and  _336
REMARK  131  A    between atoms: _340  and  _342
REMARK  132  A    between atoms: _342  and  _343
REMARK  133  A    between atoms: _342  and  _345
REMARK  134  A    between atoms: _345  and  _346
REMARK  135  A    between atoms: _349  and  _351
REMARK  136  A    between atoms: _351  and  _352
REMARK  137  A    between atoms: _351  and  _354
REMARK  138  A    between atoms: _354  and  _355
REMARK  139  A    between atoms: _361  and  _363
REMARK  140  A    between atoms: _363  and  _364
REMARK  141  A    between atoms: _363  and  _366
REMARK  142  A    between atoms: _369  and  _371
REMARK  143  A    between atoms: _371  and  _372
REMARK  144  A    between atoms: _371  and  _374
REMARK  145  A    between atoms: _374  and  _375
REMARK  146  A    between atoms: _378  and  _380
REMARK  147  A    between atoms: _380  and  _381
REMARK  148  A    between atoms: _380  and  _383
REMARK  149  A    between atoms: _386  and  _388
REMARK  150  A    between atoms: _388  and  _389
REMARK  151  A    between atoms: _388  and  _391
REMARK  152  A    between atoms: _391  and  _392
REMARK  153  A    between atoms: _392  and  _393
REMARK  154  A    between atoms: _393  and  _394
REMARK  155  A    between atoms: _394  and  _395
REMARK  156  A    between atoms: _399  and  _401
REMARK  157  A    between atoms: _401  and  _402
REMARK  158  A    between atoms: _401  and  _404
REMARK  159  A    between atoms: _404  and  _405
REMARK  160  A    between atoms: _408  and  _410
REMARK  161  A    between atoms: _410  and  _411
REMARK  162  A    between atoms: _410  and  _413
REMARK  163  A    between atoms: _413  and  _414
REMARK  164  A    between atoms: _419  and  _420
REMARK  165  A    between atoms: _422  and  _424
REMARK  166  A    between atoms: _424  and  _425
REMARK  167  A    between atoms: _424  and  _427
REMARK  168  A    between atoms: _427  and  _428
REMARK  169  A    between atoms: _433  and  _434
REMARK  170  A    between atoms: _436  and  _438
REMARK  171  A    between atoms: _438  and  _439
REMARK  172  A    between atoms: _441  and  _443
REMARK  173  A    between atoms: _443  and  _444
REMARK  174  A    between atoms: _443  and  _446
REMARK  175  A    between atoms: _449  and  _451
REMARK  176  A    between atoms: _451  and  _452
REMARK  177  A    between atoms: _451  and  _454
REMARK  178  A    between atoms: _454  and  _455
REMARK  179  A    between atoms: _457  and  _459
REMARK  180  A    between atoms: _459  and  _460
REMARK  181  A    between atoms: _459  and  _462
REMARK  182  A    between atoms: _462  and  _463
REMARK  183  A    between atoms: _468  and  _469
REMARK  184  A    between atoms: _471  and  _473
REMARK  185  A    between atoms: _473  and  _474
REMARK  186  A    between atoms: _473  and  _476
REMARK  187  A    between atoms: _476  and  _477
REMARK  188  A    between atoms: _482  and  _483
REMARK  189  A    between atoms: _485  and  _487
REMARK  190  A    between atoms: _487  and  _488
REMARK  191  A    between atoms: _487  and  _490
REMARK  192  A    between atoms: _490  and  _491
REMARK  193  A    between atoms: _494  and  _496
REMARK  194  A    between atoms: _496  and  _497
REMARK  195  A    between atoms: _496  and  _499
REMARK  196  A    between atoms: _503  and  _504
REMARK  197  A    between atoms: _509  and  _511
REMARK  198  A    between atoms: _511  and  _512
REMARK  199  A    between atoms: _511  and  _514
REMARK  200  A    between atoms: _514  and  _515
REMARK  201  A    between atoms: _520  and  _521
REMARK  202  A    between atoms: _523  and  _525
REMARK  203  A    between atoms: _525  and  _526
REMARK  204  A    between atoms: _525  and  _528
REMARK  205  A    between atoms: _528  and  _529
REMARK  206  A    between atoms: _534  and  _535
REMARK  207  A    between atoms: _537  and  _539
REMARK  208  A    between atoms: _539  and  _540
REMARK  209  A    between atoms: _539  and  _542
REMARK  210  A    between atoms: _542  and  _543
REMARK  211  A    between atoms: _545  and  _547
REMARK  212  A    between atoms: _547  and  _548
REMARK  213  A    between atoms: _547  and  _550
REMARK  214  A    between atoms: _550  and  _551
REMARK  215  A    between atoms: _554  and  _556
REMARK  216  A    between atoms: _556  and  _557
REMARK  217  A    between atoms: _556  and  _559
REMARK  218  A    between atoms: _559  and  _560
REMARK  219  A    between atoms: _565  and  _566
REMARK  220  A    between atoms: _568  and  _570
REMARK  221  A    between atoms: _570  and  _571
REMARK  222  A    between atoms: _570  and  _573
REMARK  223  A    between atoms: _573  and  _574
REMARK  224  A    between atoms: _579  and  _580
REMARK  225  A    between atoms: _582  and  _584
REMARK  226  A    between atoms: _584  and  _585
REMARK  227  A    between atoms: _587  and  _589
REMARK  228  A    between atoms: _589  and  _590
REMARK  229  A    between atoms: _589  and  _592
REMARK  230  A    between atoms: _592  and  _593
REMARK  231  A    between atoms: _595  and  _597
REMARK  232  A    between atoms: _597  and  _598
REMARK  233  A    between atoms: _597  and  _600
REMARK  234  A    between atoms: _600  and  _601
REMARK  235  A    between atoms: _606  and  _608
REMARK  236  A    between atoms: _608  and  _609
REMARK  237  A    between atoms: _608  and  _611
REMARK  238  A    between atoms: _611  and  _612
REMARK  239  A    between atoms: _617  and  _618
REMARK                            x       y       z     vdW  Elec       q    Type
REMARK                         _______ _______ _______ _____ _____    ______ ____
ROOT
ATOM      1  C   PRO A   1       4.006   5.975 -16.037  0.00  0.00    +0.239 C 
ATOM      2  N   ALA A   2       3.549   4.732 -15.945  0.00  0.00    -0.298 N 
ATOM      3  H   ALA A   2       3.143   4.407 -15.044  0.00  0.00    +0.150 HD
ATOM      4  O   PRO A   1       4.470   6.439 -17.078  0.00  0.00    -0.274 OA
ENDROOT
BRANCH   1   9
ATOM      5  N   PRO A   1       2.855   6.556 -13.860  0.00  0.00    -0.210 NA
ATOM      6  CD  PRO A   1       3.352   6.281 -12.502  0.00  0.00    +0.089 C 
ATOM      7  CG  PRO A   1       4.757   6.764 -12.540  0.00  0.00    +0.021 C 
ATOM      8  CB  PRO A   1       5.213   6.611 -13.943  0.00  0.00    +0.028 C 
ATOM      9  CA  PRO A   1       3.960   6.845 -14.791  0.00  0.00    +0.149 C 
ENDBRANCH   1   9
BRANCH   2  10
ATOM     10  CA  ALA A   2       3.602   3.804 -17.081  0.00  0.00    +0.137 C 
ATOM     11  CB  ALA A   2       3.979   2.398 -16.573  0.00  0.00    +0.030 C 
BRANCH  10  12
ATOM     12  C   ALA A   2       2.317   3.718 -17.910  0.00  0.00    +0.227 C 
ATOM     13  O   ALA A   2       2.262   2.985 -18.916  0.00  0.00    -0.286 OA
ENDBRANCH  10  12
ENDBRANCH   2  10
TORSDOF 3
REMARK  Name = ../refined-set-2016/2qbw/2qbw_pocket.pdb
REMARK  239 active torsions:
REMARK  status: ('A' for Active; 'I' for Inactive)
REMARK    1  A    between atoms: _1  and  _5
REMARK    2  A    between atoms: _5  and  _6
REMARK    3  A    between atoms: _5  and  _8
REMARK    4  A    between atoms: _8  and  _9
REMARK    5  A    between atoms: _12  and  _13
REMARK    6  A    between atoms: _18  and  _20
REMARK    7  A    between atoms: _20  and  _21
REMARK    8  A    between atoms: _20  and  _23
REMARK    9  A    between atoms: _23  and  _24
REMARK   10  A    between atoms: _24  and  _25
REMARK   11  A    between atoms: _28  and  _30
REMARK   12  A    between atoms: _30  and  _31
REMARK   13  A    between atoms: _30  and  _33
REMARK   14  A    between atoms: _33  and  _34
REMARK   15  A    between atoms: _37  and  _39
REMARK   16  A    between atoms: _39  and  _40
REMARK   17  A    between atoms: _42  and  _44
REMARK   18  A    between atoms: _44  and  _45
REMARK   19  A    between atoms: _44  and  _47
REMARK   20  A    between atoms: _47  and  _48
REMARK   21  A    between atoms: _54  and  _56
REMARK   22  A    between atoms: _56  and  _57
REMARK   23  A    between atoms: _56  and  _59
REMARK   24  A    between atoms: _59  and  _60
REMARK   25  A    between atoms: _62  and  _64
REMARK   26  A    between atoms: _64  and  _65
REMARK   27  A    between atoms: _64  and  _67
REMARK   28  A    between atoms: _67  and  _68
REMARK   29  A    between atoms: _71  and  _73
REMARK   30  A    between atoms: _73  and  _74
REMARK   31  A    between atoms: _73  and  _76
REMARK   32  A    between atoms: _76  and  _77
REMARK   33  A    between atoms: _79  and  _81
REMARK   34  A    between atoms: _81  and  _82
REMARK   35  A    between atoms: _84  and  _86
REMARK   36  A    between atoms: _86  and  _87
REMARK   37  A    between atoms: _89  and  _91
REMARK   38  A    between atoms: _91  and  _92
REMARK   39  A    between atoms: _94  and  _96
REMARK   40  A    between atoms: _96  and  _97
REMARK   41  A    between atoms: _96  and  _99
REMARK   42  A    between atoms: _99  and  _100
REMARK   43  A    between atoms: _100  and  _101
REMARK   44  A    between atoms: _101  and  _102
REMARK   45  A    between atoms: _111  and  _113
REMARK   46  A    between atoms: _113  and  _114
REMARK   47  A    between atoms: _116  and  _118
REMARK   48  A    between atoms: _118  and  _119
REMARK   49  A    between atoms: _118  and  _121
REMARK   50  A    between atoms: _121  and  _122
REMARK   51  A    between atoms: _128  and  _129
REMARK   52  A    between atoms: _134  and  _136
REMARK   53  A    between atoms: _136  and  _137
REMARK   54  A    between atoms: _136  and  _139
REMARK   55  A    between atoms: _139  and  _140
REMARK   56  A    between atoms: _146  and  _148
REMARK   57  A    between atoms: _148  and  _149
REMARK   58  A    between atoms: _148  and  _151
REMARK   59  A    between atoms: _151  and  _152
REMARK   60  A    between atoms: _155  and  _157
REMARK   61  A    between atoms: _157  and  _158
REMARK   62  A    between atoms: _157  and  _160
REMARK   63  A    between atoms: _160  and  _161
REMARK   64  A    between atoms: _167  and  _169
REMARK   65  A    between atoms: _169  and  _170
REMARK   66  A    between atoms: _169  and  _172
REMARK   67  A    between atoms: _175  and  _177
REMARK   68  A    between atoms: _177  and  _178
REMARK   69  A    between atoms: _177  and  _180
REMARK   70  A    between atoms: _180  and  _181
REMARK   71  A    between atoms: _184  and  _186
REMARK   72  A    between atoms: _186  and  _187
REMARK   73  A    between atoms: _186  and  _189
REMARK   74  A    between atoms: _189  and  _190
REMARK   75  A    between atoms: _190  and  _191
REMARK   76  A    between atoms: _191  and  _192
REMARK   77  A    between atoms: _201  and  _203
REMARK   78  A    between atoms: _203  and  _204
REMARK   79  A    between atoms: _203  and  _206
REMARK   80  A    between atoms: _209  and  _211
REMARK   81  A    between atoms: _211  and  _212
REMARK   82  A    between atoms: _211  and  _214
REMARK   83  A    between atoms: _214  and  _215
REMARK   84  A    between atoms: _215  and  _216
REMARK   85  A    between atoms: _222  and  _223
REMARK   86  A    between atoms: _229  and  _230
REMARK   87  A    between atoms: _235  and  _237
REMARK   88  A    between atoms: _237  and  _238
REMARK   89  A    between atoms: _241  and  _243
REMARK   90  A    between atoms: _243  and  _244
REMARK   91  A    between atoms: _243  and  _246
REMARK   92  A    between atoms: _246  and  _247
REMARK   93  A    between atoms: _250  and  _252
REMARK   94  A    between atoms: _252  and  _253
REMARK   95  A    between atoms: _252  and  _255
REMARK   96  A    between atoms: _255  and  _256
REMARK   97  A    between atoms: _259  and  _261
REMARK   98  A    between atoms: _261  and  _262
REMARK   99  A    between atoms: _261  and  _264
REMARK  100  A    between atoms: _264  and  _265
REMARK  101  A    between atoms: _271  and  _273
REMARK  102  A    between atoms: _273  and  _274
REMARK  103  A    between atoms: _273  and  _276
REMARK  104  A    between atoms: _276  and  _277
REMARK  105  A    between atoms: _282  and  _284
REMARK  106  A    between atoms: _284  and  _285
REMARK  107  A    between atoms: _287  and  _289
REMARK  108  A    between atoms: _289  and  _290
REMARK  109  A    between atoms: _293  and  _295
REMARK  110  A    between atoms: _295  and  _296
REMARK  111  A    between atoms: _295  and  _298
REMARK  112  A    between atoms: _301  and  _303
REMARK  113  A    between atoms: _303  and  _304
REMARK  114  A    between atoms: _303  and  _306
REMARK  115  A    between atoms: _306  and  _307
REMARK  116  A    between atoms: _309  and  _311
REMARK  117  A    between atoms: _311  and  _312
REMARK  118  A    between atoms: _311  and  _314
REMARK  119  A    between atoms: _314  and  _315
REMARK  120  A    between atoms: _318  and  _320
REMARK  121  A    between atoms: _320  and  _321
REMARK  122  A    between atoms: _320  and  _323
REMARK  123  A    between atoms: _323  and  _324
REMARK  124  A    between atoms: _327  and  _329
REMARK  125  A    between atoms: _329  and  _330
REMARK  126  A    between atoms: _329  and  _332
REMARK  127  A    between atoms: _332  and  _333
REMARK  128  A    between atoms: _333  and  _334
REMARK  129  A    between atoms: _334  and  _335
REMARK  130  A    between atoms: _335  and  _336
REMARK  131  A    between atoms: _340  and  _342
REMARK  132  A    between atoms: _342  and  _343
REMARK  133  A    between atoms: _342  and  _345
REMARK  134  A    between atoms: _345  and  _346
REMARK  135  A    between atoms: _349  and  _351
REMARK  136  A    between atoms: _351  and  _352
REMARK  137  A    between atoms: _351  and  _354
REMARK  138  A    between atoms: _354  and  _355
REMARK  139  A    between atoms: _361  and  _363
REMARK  140  A    between atoms: _363  and  _364
REMARK  141  A    between atoms: _363  and  _366
REMARK  142  A    between atoms: _369  and  _371
REMARK  143  A    between atoms: _371  and  _372
REMARK  144  A    between atoms: _371  and  _374
REMARK  145  A    between atoms: _374  and  _375
REMARK  146  A    between atoms: _378  and  _380
REMARK  147  A    between atoms: _380  and  _381
REMARK  148  A    between atoms: _380  and  _383
REMARK  149  A    between atoms: _386  and  _388
REMARK  150  A    between atoms: _388  and  _389
REMARK  151  A    between atoms: _388  and  _391
REMARK  152  A    between atoms: _391  and  _392
REMARK  153  A    between atoms: _392  and  _393
REMARK  154  A    between atoms: _393  and  _394
REMARK  155  A    between atoms: _394  and  _395
REMARK  156  A    between atoms: _399  and  _401
REMARK  157  A    between atoms: _401  and  _402
REMARK  158  A    between atoms: _401  and  _404
REMARK  159  A    between atoms: _404  and  _405
REMARK  160  A    between atoms: _408  and  _410
REMARK  161  A    between atoms: _410  and  _411
REMARK  162  A    between atoms: _410  and  _413
REMARK  163  A    between atoms: _413  and  _414
REMARK  164  A    between atoms: _419  and  _420
REMARK  165  A    between atoms: _422  and  _424
REMARK  166  A    between atoms: _424  and  _425
REMARK  167  A    between atoms: _424  and  _427
REMARK  168  A    between atoms: _427  and  _428
REMARK  169  A    between atoms: _433  and  _434
REMARK  170  A    between atoms: _436  and  _438
REMARK  171  A    between atoms: _438  and  _439
REMARK  172  A    between atoms: _441  and  _443
REMARK  173  A    between atoms: _443  and  _444
REMARK  174  A    between atoms: _443  and  _446
REMARK  175  A    between atoms: _449  and  _451
REMARK  176  A    between atoms: _451  and  _452
REMARK  177  A    between atoms: _451  and  _454
REMARK  178  A    between atoms: _454  and  _455
REMARK  179  A    between atoms: _457  and  _459
REMARK  180  A    between atoms: _459  and  _460
REMARK  181  A    between atoms: _459  and  _462
REMARK  182  A    between atoms: _462  and  _463
REMARK  183  A    between atoms: _468  and  _469
REMARK  184  A    between atoms: _471  and  _473
REMARK  185  A    between atoms: _473  and  _474
REMARK  186  A    between atoms: _473  and  _476
REMARK  187  A    between atoms: _476  and  _477
REMARK  188  A    between atoms: _482  and  _483
REMARK  189  A    between atoms: _485  and  _487
REMARK  190  A    between atoms: _487  and  _488
REMARK  191  A    between atoms: _487  and  _490
REMARK  192  A    between atoms: _490  and  _491
REMARK  193  A    between atoms: _494  and  _496
REMARK  194  A    between atoms: _496  and  _497
REMARK  195  A    between atoms: _496  and  _499
REMARK  196  A    between atoms: _503  and  _504
REMARK  197  A    between atoms: _509  and  _511
REMARK  198  A    between atoms: _511  and  _512
REMARK  199  A    between atoms: _511  and  _514
REMARK  200  A    between atoms: _514  and  _515
REMARK  201  A    between atoms: _520  and  _521
REMARK  202  A    between atoms: _523  and  _525
REMARK  203  A    between atoms: _525  and  _526
REMARK  204  A    between atoms: _525  and  _528
REMARK  205  A    between atoms: _528  and  _529
REMARK  206  A    between atoms: _534  and  _535
REMARK  207  A    between atoms: _537  and  _539
REMARK  208  A    between atoms: _539  and  _540
REMARK  209  A    between atoms: _539  and  _542
REMARK  210  A    between atoms: _542  and  _543
REMARK  211  A    between atoms: _545  and  _547
REMARK  212  A    between atoms: _547  and  _548
REMARK  213  A    between atoms: _547  and  _550
REMARK  214  A    between atoms: _550  and  _551
REMARK  215  A    between atoms: _554  and  _556
REMARK  216  A    between atoms: _556  and  _557
REMARK  217  A    between atoms: _556  and  _559
REMARK  218  A    between atoms: _559  and  _560
REMARK  219  A    between atoms: _565  and  _566
REMARK  220  A    between atoms: _568  and  _570
REMARK  221  A    between atoms: _570  and  _571
REMARK  222  A    between atoms: _570  and  _573
REMARK  223  A    between atoms: _573  and  _574
REMARK  224  A    between atoms: _579  and  _580
REMARK  225  A    between atoms: _582  and  _584
REMARK  226  A    between atoms: _584  and  _585
REMARK  227  A    between atoms: _587  and  _589
REMARK  228  A    between atoms: _589  and  _590
REMARK  229  A    between atoms: _589  and  _592
REMARK  230  A    between atoms: _592  and  _593
REMARK  231  A    between atoms: _595  and  _597
REMARK  232  A    between atoms: _597  and  _598
REMARK  233  A    between atoms: _597  and  _600
REMARK  234  A    between atoms: _600  and  _601
REMARK  235  A    between atoms: _606  and  _608
REMARK  236  A    between atoms: _608  and  _609
REMARK  237  A    between atoms: _608  and  _611
REMARK  238  A    between atoms: _611  and  _612
REMARK  239  A    between atoms: _617  and  _618
REMARK                            x       y       z     vdW  Elec       q    Type
REMARK                         _______ _______ _______ _____ _____    ______ ____
ROOT
ATOM      1  CA  LEU A   1       3.206  -0.046 -21.111  0.00  0.00    +0.133 C 
ENDROOT
BRANCH   1   2
ATOM      2  N   LEU A   1       3.128   1.406 -21.328  0.00  0.00    -0.239 NA
ATOM      3  H   LEU A   1       2.677   1.991 -20.596  0.00  0.00    +0.142 HD
ENDBRANCH   1   2
BRANCH   1   4
ATOM      4  C   LEU A   1       1.844  -0.669 -21.001  0.00  0.00    +0.224 C 
ATOM      5  O   LEU A   1       0.892  -0.032 -20.578  0.00  0.00    -0.287 OA
ENDBRANCH   1   4
BRANCH   1   6
ATOM      6  CB  LEU A   1       3.978  -0.338 -19.812  0.00  0.00    +0.025 C 
BRANCH   6   7
ATOM      7  CG  LEU A   1       5.452   0.052 -19.769  0.00  0.00    +0.002 C 
ATOM      8  CD2 LEU A   1       6.062  -0.297 -18.410  0.00  0.00    +0.000 C 
ATOM      9  CD1 LEU A   1       6.194  -0.669 -20.868  0.00  0.00    +0.000 C 
ENDBRANCH   6   7
ENDBRANCH   1   6
TORSDOF 4
REMARK  Name = ../refined-set-2016/2qbw/2qbw_pocket.pdb
REMARK  239 active torsions:
REMARK  status: ('A' for Active; 'I' for Inactive)
REMARK    1  A    between atoms: _1  and  _5
REMARK    2  A    between atoms: _5  and  _6
REMARK    3  A    between atoms: _5  and  _8
REMARK    4  A    between atoms: _8  and  _9
REMARK    5  A    between atoms: _12  and  _13
REMARK    6  A    between atoms: _18  and  _20
REMARK    7  A    between atoms: _20  and  _21
REMARK    8  A    between atoms: _20  and  _23
REMARK    9  A    between atoms: _23  and  _24
REMARK   10  A    between atoms: _24  and  _25
REMARK   11  A    between atoms: _28  and  _30
REMARK   12  A    between atoms: _30  and  _31
REMARK   13  A    between atoms: _30  and  _33
REMARK   14  A    between atoms: _33  and  _34
REMARK   15  A    between atoms: _37  and  _39
REMARK   16  A    between atoms: _39  and  _40
REMARK   17  A    between atoms: _42  and  _44
REMARK   18  A    between atoms: _44  and  _45
REMARK   19  A    between atoms: _44  and  _47
REMARK   20  A    between atoms: _47  and  _48
REMARK   21  A    between atoms: _54  and  _56
REMARK   22  A    between atoms: _56  and  _57
REMARK   23  A    between atoms: _56  and  _59
REMARK   24  A    between atoms: _59  and  _60
REMARK   25  A    between atoms: _62  and  _64
REMARK   26  A    between atoms: _64  and  _65
REMARK   27  A    between atoms: _64  and  _67
REMARK   28  A    between atoms: _67  and  _68
REMARK   29  A    between atoms: _71  and  _73
REMARK   30  A    between atoms: _73  and  _74
REMARK   31  A    between atoms: _73  and  _76
REMARK   32  A    between atoms: _76  and  _77
REMARK   33  A    between atoms: _79  and  _81
REMARK   34  A    between atoms: _81  and  _82
REMARK   35  A    between atoms: _84  and  _86
REMARK   36  A    between atoms: _86  and  _87
REMARK   37  A    between atoms: _89  and  _91
REMARK   38  A    between atoms: _91  and  _92
REMARK   39  A    between atoms: _94  and  _96
REMARK   40  A    between atoms: _96  and  _97
REMARK   41  A    between atoms: _96  and  _99
REMARK   42  A    between atoms: _99  and  _100
REMARK   43  A    between atoms: _100  and  _101
REMARK   44  A    between atoms: _101  and  _102
REMARK   45  A    between atoms: _111  and  _113
REMARK   46  A    between atoms: _113  and  _114
REMARK   47  A    between atoms: _116  and  _118
REMARK   48  A    between atoms: _118  and  _119
REMARK   49  A    between atoms: _118  and  _121
REMARK   50  A    between atoms: _121  and  _122
REMARK   51  A    between atoms: _128  and  _129
REMARK   52  A    between atoms: _134  and  _136
REMARK   53  A    between atoms: _136  and  _137
REMARK   54  A    between atoms: _136  and  _139
REMARK   55  A    between atoms: _139  and  _140
REMARK   56  A    between atoms: _146  and  _148
REMARK   57  A    between atoms: _148  and  _149
REMARK   58  A    between atoms: _148  and  _151
REMARK   59  A    between atoms: _151  and  _152
REMARK   60  A    between atoms: _155  and  _157
REMARK   61  A    between atoms: _157  and  _158
REMARK   62  A    between atoms: _157  and  _160
REMARK   63  A    between atoms: _160  and  _161
REMARK   64  A    between atoms: _167  and  _169
REMARK   65  A    between atoms: _169  and  _170
REMARK   66  A    between atoms: _169  and  _172
REMARK   67  A    between atoms: _175  and  _177
REMARK   68  A    between atoms: _177  and  _178
REMARK   69  A    between atoms: _177  and  _180
REMARK   70  A    between atoms: _180  and  _181
REMARK   71  A    between atoms: _184  and  _186
REMARK   72  A    between atoms: _186  and  _187
REMARK   73  A    between atoms: _186  and  _189
REMARK   74  A    between atoms: _189  and  _190
REMARK   75  A    between atoms: _190  and  _191
REMARK   76  A    between atoms: _191  and  _192
REMARK   77  A    between atoms: _201  and  _203
REMARK   78  A    between atoms: _203  and  _204
REMARK   79  A    between atoms: _203  and  _206
REMARK   80  A    between atoms: _209  and  _211
REMARK   81  A    between atoms: _211  and  _212
REMARK   82  A    between atoms: _211  and  _214
REMARK   83  A    between atoms: _214  and  _215
REMARK   84  A    between atoms: _215  and  _216
REMARK   85  A    between atoms: _222  and  _223
REMARK   86  A    between atoms: _229  and  _230
REMARK   87  A    between atoms: _235  and  _237
REMARK   88  A    between atoms: _237  and  _238
REMARK   89  A    between atoms: _241  and  _243
REMARK   90  A    between atoms: _243  and  _244
REMARK   91  A    between atoms: _243  and  _246
REMARK   92  A    between atoms: _246  and  _247
REMARK   93  A    between atoms: _250  and  _252
REMARK   94  A    between atoms: _252  and  _253
REMARK   95  A    between atoms: _252  and  _255
REMARK   96  A    between atoms: _255  and  _256
REMARK   97  A    between atoms: _259  and  _261
REMARK   98  A    between atoms: _261  and  _262
REMARK   99  A    between atoms: _261  and  _264
REMARK  100  A    between atoms: _264  and  _265
REMARK  101  A    between atoms: _271  and  _273
REMARK  102  A    between atoms: _273  and  _274
REMARK  103  A    between atoms: _273  and  _276
REMARK  104  A    between atoms: _276  and  _277
REMARK  105  A    between atoms: _282  and  _284
REMARK  106  A    between atoms: _284  and  _285
REMARK  107  A    between atoms: _287  and  _289
REMARK  108  A    between atoms: _289  and  _290
REMARK  109  A    between atoms: _293  and  _295
REMARK  110  A    between atoms: _295  and  _296
REMARK  111  A    between atoms: _295  and  _298
REMARK  112  A    between atoms: _301  and  _303
REMARK  113  A    between atoms: _303  and  _304
REMARK  114  A    between atoms: _303  and  _306
REMARK  115  A    between atoms: _306  and  _307
REMARK  116  A    between atoms: _309  and  _311
REMARK  117  A    between atoms: _311  and  _312
REMARK  118  A    between atoms: _311  and  _314
REMARK  119  A    between atoms: _314  and  _315
REMARK  120  A    between atoms: _318  and  _320
REMARK  121  A    between atoms: _320  and  _321
REMARK  122  A    between atoms: _320  and  _323
REMARK  123  A    between atoms: _323  and  _324
REMARK  124  A    between atoms: _327  and  _329
REMARK  125  A    between atoms: _329  and  _330
REMARK  126  A    between atoms: _329  and  _332
REMARK  127  A    between atoms: _332  and  _333
REMARK  128  A    between atoms: _333  and  _334
REMARK  129  A    between atoms: _334  and  _335
REMARK  130  A    between atoms: _335  and  _336
REMARK  131  A    between atoms: _340  and  _342
REMARK  132  A    between atoms: _342  and  _343
REMARK  133  A    between atoms: _342  and  _345
REMARK  134  A    between atoms: _345  and  _346
REMARK  135  A    between atoms: _349  and  _351
REMARK  136  A    between atoms: _351  and  _352
REMARK  137  A    between atoms: _351  and  _354
REMARK  138  A    between atoms: _354  and  _355
REMARK  139  A    between atoms: _361  and  _363
REMARK  140  A    between atoms: _363  and  _364
REMARK  141  A    between atoms: _363  and  _366
REMARK  142  A    between atoms: _369  and  _371
REMARK  143  A    between atoms: _371  and  _372
REMARK  144  A    between atoms: _371  and  _374
REMARK  145  A    between atoms: _374  and  _375
REMARK  146  A    between atoms: _378  and  _380
REMARK  147  A    between atoms: _380  and  _381
REMARK  148  A    between atoms: _380  and  _383
REMARK  149  A    between atoms: _386  and  _388
REMARK  150  A    between atoms: _388  and  _389
REMARK  151  A    between atoms: _388  and  _391
REMARK  152  A    between atoms: _391  and  _392
REMARK  153  A    between atoms: _392  and  _393
REMARK  154  A    between atoms: _393  and  _394
REMARK  155  A    between atoms: _394  and  _395
REMARK  156  A    between atoms: _399  and  _401
REMARK  157  A    between atoms: _401  and  _402
REMARK  158  A    between atoms: _401  and  _404
REMARK  159  A    between atoms: _404  and  _405
REMARK  160  A    between atoms: _408  and  _410
REMARK  161  A    between atoms: _410  and  _411
REMARK  162  A    between atoms: _410  and  _413
REMARK  163  A    between atoms: _413  and  _414
REMARK  164  A    between atoms: _419  and  _420
REMARK  165  A    between atoms: _422  and  _424
REMARK  166  A    between atoms: _424  and  _425
REMARK  167  A    between atoms: _424  and  _427
REMARK  168  A    between atoms: _427  and  _428
REMARK  169  A    between atoms: _433  and  _434
REMARK  170  A    between atoms: _436  and  _438
REMARK  171  A    between atoms: _438  and  _439
REMARK  172  A    between atoms: _441  and  _443
REMARK  173  A    between atoms: _443  and  _444
REMARK  174  A    between atoms: _443  and  _446
REMARK  175  A    between atoms: _449  and  _451
REMARK  176  A    between atoms: _451  and  _452
REMARK  177  A    between atoms: _451  and  _454
REMARK  178  A    between atoms: _454  and  _455
REMARK  179  A    between atoms: _457  and  _459
REMARK  180  A    between atoms: _459  and  _460
REMARK  181  A    between atoms: _459  and  _462
REMARK  182  A    between atoms: _462  and  _463
REMARK  183  A    between atoms: _468  and  _469
REMARK  184  A    between atoms: _471  and  _473
REMARK  185  A    between atoms: _473  and  _474
REMARK  186  A    between atoms: _473  and  _476
REMARK  187  A    between atoms: _476  and  _477
REMARK  188  A    between atoms: _482  and  _483
REMARK  189  A    between atoms: _485  and  _487
REMARK  190  A    between atoms: _487  and  _488
REMARK  191  A    between atoms: _487  and  _490
REMARK  192  A    between atoms: _490  and  _491
REMARK  193  A    between atoms: _494  and  _496
REMARK  194  A    between atoms: _496  and  _497
REMARK  195  A    between atoms: _496  and  _499
REMARK  196  A    between atoms: _503  and  _504
REMARK  197  A    between atoms: _509  and  _511
REMARK  198  A    between atoms: _511  and  _512
REMARK  199  A    between atoms: _511  and  _514
REMARK  200  A    between atoms: _514  and  _515
REMARK  201  A    between atoms: _520  and  _521
REMARK  202  A    between atoms: _523  and  _525
REMARK  203  A    between atoms: _525  and  _526
REMARK  204  A    between atoms: _525  and  _528
REMARK  205  A    between atoms: _528  and  _529
REMARK  206  A    between atoms: _534  and  _535
REMARK  207  A    between atoms: _537  and  _539
REMARK  208  A    between atoms: _539  and  _540
REMARK  209  A    between atoms: _539  and  _542
REMARK  210  A    between atoms: _542  and  _543
REMARK  211  A    between atoms: _545  and  _547
REMARK  212  A    between atoms: _547  and  _548
REMARK  213  A    between atoms: _547  and  _550
REMARK  214  A    between atoms: _550  and  _551
REMARK  215  A    between atoms: _554  and  _556
REMARK  216  A    between atoms: _556  and  _557
REMARK  217  A    between atoms: _556  and  _559
REMARK  218  A    between atoms: _559  and  _560
REMARK  219  A    between atoms: _565  and  _566
REMARK  220  A    between atoms: _568  and  _570
REMARK  221  A    between atoms: _570  and  _571
REMARK  222  A    between atoms: _570  and  _573
REMARK  223  A    between atoms: _573  and  _574
REMARK  224  A    between atoms: _579  and  _580
REMARK  225  A    between atoms: _582  and  _584
REMARK  226  A    between atoms: _584  and  _585
REMARK  227  A    between atoms: _587  and  _589
REMARK  228  A    between atoms: _589  and  _590
REMARK  229  A    between atoms: _589  and  _592
REMARK  230  A    between atoms: _592  and  _593
REMARK  231  A    between atoms: _595  and  _597
REMARK  232  A    between atoms: _597  and  _598
REMARK  233  A    between atoms: _597  and  _600
REMARK  234  A    between atoms: _600  and  _601
REMARK  235  A    between atoms: _606  and  _608
REMARK  236  A    between atoms: _608  and  _609
REMARK  237  A    between atoms: _608  and  _611
REMARK  238  A    between atoms: _611  and  _612
REMARK  239  A    between atoms: _617  and  _618
REMARK                            x       y       z     vdW  Elec       q    Type
REMARK                         _______ _______ _______ _____ _____    ______ ____
ROOT
ATOM      1  CA  ILE A   1      10.896  -6.558 -20.375  0.00  0.00    +0.133 C 
ENDROOT
BRANCH   1   2
ATOM      2  N   ILE A   1       9.742  -7.470 -20.561  0.00  0.00    -0.239 NA
ATOM      3  H   ILE A   1       9.339  -7.962 -19.738  0.00  0.00    +0.142 HD
ENDBRANCH   1   2
BRANCH   1   4
ATOM      4  CB  ILE A   1      10.980  -5.997 -18.930  0.00  0.00    +0.023 C 
ATOM      5  CG2 ILE A   1      12.194  -5.087 -18.776  0.00  0.00    +0.002 C 
BRANCH   4   6
ATOM      6  CG1 ILE A   1       9.694  -5.258 -18.557  0.00  0.00    +0.002 C 
ATOM      7  CD1 ILE A   1       9.587  -4.864 -17.125  0.00  0.00    +0.000 C 
ENDBRANCH   4   6
ENDBRANCH   1   4
BRANCH   1   8
ATOM      8  C   ILE A   1      12.171  -7.325 -20.687  0.00  0.00    +0.224 C 
ATOM      9  O   ILE A   1      12.476  -8.334 -20.030  0.00  0.00    -0.287 OA
ENDBRANCH   1   8
TORSDOF 4
REMARK  Name = ../refined-set-2016/2qbw/2qbw_pocket.pdb
REMARK  239 active torsions:
REMARK  status: ('A' for Active; 'I' for Inactive)
REMARK    1  A    between atoms: _1  and  _5
REMARK    2  A    between atoms: _5  and  _6
REMARK    3  A    between atoms: _5  and  _8
REMARK    4  A    between atoms: _8  and  _9
REMARK    5  A    between atoms: _12  and  _13
REMARK    6  A    between atoms: _18  and  _20
REMARK    7  A    between atoms: _20  and  _21
REMARK    8  A    between atoms: _20  and  _23
REMARK    9  A    between atoms: _23  and  _24
REMARK   10  A    between atoms: _24  and  _25
REMARK   11  A    between atoms: _28  and  _30
REMARK   12  A    between atoms: _30  and  _31
REMARK   13  A    between atoms: _30  and  _33
REMARK   14  A    between atoms: _33  and  _34
REMARK   15  A    between atoms: _37  and  _39
REMARK   16  A    between atoms: _39  and  _40
REMARK   17  A    between atoms: _42  and  _44
REMARK   18  A    between atoms: _44  and  _45
REMARK   19  A    between atoms: _44  and  _47
REMARK   20  A    between atoms: _47  and  _48
REMARK   21  A    between atoms: _54  and  _56
REMARK   22  A    between atoms: _56  and  _57
REMARK   23  A    between atoms: _56  and  _59
REMARK   24  A    between atoms: _59  and  _60
REMARK   25  A    between atoms: _62  and  _64
REMARK   26  A    between atoms: _64  and  _65
REMARK   27  A    between atoms: _64  and  _67
REMARK   28  A    between atoms: _67  and  _68
REMARK   29  A    between atoms: _71  and  _73
REMARK   30  A    between atoms: _73  and  _74
REMARK   31  A    between atoms: _73  and  _76
REMARK   32  A    between atoms: _76  and  _77
REMARK   33  A    between atoms: _79  and  _81
REMARK   34  A    between atoms: _81  and  _82
REMARK   35  A    between atoms: _84  and  _86
REMARK   36  A    between atoms: _86  and  _87
REMARK   37  A    between atoms: _89  and  _91
REMARK   38  A    between atoms: _91  and  _92
REMARK   39  A    between atoms: _94  and  _96
REMARK   40  A    between atoms: _96  and  _97
REMARK   41  A    between atoms: _96  and  _99
REMARK   42  A    between atoms: _99  and  _100
REMARK   43  A    between atoms: _100  and  _101
REMARK   44  A    between atoms: _101  and  _102
REMARK   45  A    between atoms: _111  and  _113
REMARK   46  A    between atoms: _113  and  _114
REMARK   47  A    between atoms: _116  and  _118
REMARK   48  A    between atoms: _118  and  _119
REMARK   49  A    between atoms: _118  and  _121
REMARK   50  A    between atoms: _121  and  _122
REMARK   51  A    between atoms: _128  and  _129
REMARK   52  A    between atoms: _134  and  _136
REMARK   53  A    between atoms: _136  and  _137
REMARK   54  A    between atoms: _136  and  _139
REMARK   55  A    between atoms: _139  and  _140
REMARK   56  A    between atoms: _146  and  _148
REMARK   57  A    between atoms: _148  and  _149
REMARK   58  A    between atoms: _148  and  _151
REMARK   59  A    between atoms: _151  and  _152
REMARK   60  A    between atoms: _155  and  _157
REMARK   61  A    between atoms: _157  and  _158
REMARK   62  A    between atoms: _157  and  _160
REMARK   63  A    between atoms: _160  and  _161
REMARK   64  A    between atoms: _167  and  _169
REMARK   65  A    between atoms: _169  and  _170
REMARK   66  A    between atoms: _169  and  _172
REMARK   67  A    between atoms: _175  and  _177
REMARK   68  A    between atoms: _177  and  _178
REMARK   69  A    between atoms: _177  and  _180
REMARK   70  A    between atoms: _180  and  _181
REMARK   71  A    between atoms: _184  and  _186
REMARK   72  A    between atoms: _186  and  _187
REMARK   73  A    between atoms: _186  and  _189
REMARK   74  A    between atoms: _189  and  _190
REMARK   75  A    between atoms: _190  and  _191
REMARK   76  A    between atoms: _191  and  _192
REMARK   77  A    between atoms: _201  and  _203
REMARK   78  A    between atoms: _203  and  _204
REMARK   79  A    between atoms: _203  and  _206
REMARK   80  A    between atoms: _209  and  _211
REMARK   81  A    between atoms: _211  and  _212
REMARK   82  A    between atoms: _211  and  _214
REMARK   83  A    between atoms: _214  and  _215
REMARK   84  A    between atoms: _215  and  _216
REMARK   85  A    between atoms: _222  and  _223
REMARK   86  A    between atoms: _229  and  _230
REMARK   87  A    between atoms: _235  and  _237
REMARK   88  A    between atoms: _237  and  _238
REMARK   89  A    between atoms: _241  and  _243
REMARK   90  A    between atoms: _243  and  _244
REMARK   91  A    between atoms: _243  and  _246
REMARK   92  A    between atoms: _246  and  _247
REMARK   93  A    between atoms: _250  and  _252
REMARK   94  A    between atoms: _252  and  _253
REMARK   95  A    between atoms: _252  and  _255
REMARK   96  A    between atoms: _255  and  _256
REMARK   97  A    between atoms: _259  and  _261
REMARK   98  A    between atoms: _261  and  _262
REMARK   99  A    between atoms: _261  and  _264
REMARK  100  A    between atoms: _264  and  _265
REMARK  101  A    between atoms: _271  and  _273
REMARK  102  A    between atoms: _273  and  _274
REMARK  103  A    between atoms: _273  and  _276
REMARK  104  A    between atoms: _276  and  _277
REMARK  105  A    between atoms: _282  and  _284
REMARK  106  A    between atoms: _284  and  _285
REMARK  107  A    between atoms: _287  and  _289
REMARK  108  A    between atoms: _289  and  _290
REMARK  109  A    between atoms: _293  and  _295
REMARK  110  A    between atoms: _295  and  _296
REMARK  111  A    between atoms: _295  and  _298
REMARK  112  A    between atoms: _301  and  _303
REMARK  113  A    between atoms: _303  and  _304
REMARK  114  A    between atoms: _303  and  _306
REMARK  115  A    between atoms: _306  and  _307
REMARK  116  A    between atoms: _309  and  _311
REMARK  117  A    between atoms: _311  and  _312
REMARK  118  A    between atoms: _311  and  _314
REMARK  119  A    between atoms: _314  and  _315
REMARK  120  A    between atoms: _318  and  _320
REMARK  121  A    between atoms: _320  and  _321
REMARK  122  A    between atoms: _320  and  _323
REMARK  123  A    between atoms: _323  and  _324
REMARK  124  A    between atoms: _327  and  _329
REMARK  125  A    between atoms: _329  and  _330
REMARK  126  A    between atoms: _329  and  _332
REMARK  127  A    between atoms: _332  and  _333
REMARK  128  A    between atoms: _333  and  _334
REMARK  129  A    between atoms: _334  and  _335
REMARK  130  A    between atoms: _335  and  _336
REMARK  131  A    between atoms: _340  and  _342
REMARK  132  A    between atoms: _342  and  _343
REMARK  133  A    between atoms: _342  and  _345
REMARK  134  A    between atoms: _345  and  _346
REMARK  135  A    between atoms: _349  and  _351
REMARK  136  A    between atoms: _351  and  _352
REMARK  137  A    between atoms: _351  and  _354
REMARK  138  A    between atoms: _354  and  _355
REMARK  139  A    between atoms: _361  and  _363
REMARK  140  A    between atoms: _363  and  _364
REMARK  141  A    between atoms: _363  and  _366
REMARK  142  A    between atoms: _369  and  _371
REMARK  143  A    between atoms: _371  and  _372
REMARK  144  A    between atoms: _371  and  _374
REMARK  145  A    between atoms: _374  and  _375
REMARK  146  A    between atoms: _378  and  _380
REMARK  147  A    between atoms: _380  and  _381
REMARK  148  A    between atoms: _380  and  _383
REMARK  149  A    between atoms: _386  and  _388
REMARK  150  A    between atoms: _388  and  _389
REMARK  151  A    between atoms: _388  and  _391
REMARK  152  A    between atoms: _391  and  _392
REMARK  153  A    between atoms: _392  and  _393
REMARK  154  A    between atoms: _393  and  _394
REMARK  155  A    between atoms: _394  and  _395
REMARK  156  A    between atoms: _399  and  _401
REMARK  157  A    between atoms: _401  and  _402
REMARK  158  A    between atoms: _401  and  _404
REMARK  159  A    between atoms: _404  and  _405
REMARK  160  A    between atoms: _408  and  _410
REMARK  161  A    between atoms: _410  and  _411
REMARK  162  A    between atoms: _410  and  _413
REMARK  163  A    between atoms: _413  and  _414
REMARK  164  A    between atoms: _419  and  _420
REMARK  165  A    between atoms: _422  and  _424
REMARK  166  A    between atoms: _424  and  _425
REMARK  167  A    between atoms: _424  and  _427
REMARK  168  A    between atoms: _427  and  _428
REMARK  169  A    between atoms: _433  and  _434
REMARK  170  A    between atoms: _436  and  _438
REMARK  171  A    between atoms: _438  and  _439
REMARK  172  A    between atoms: _441  and  _443
REMARK  173  A    between atoms: _443  and  _444
REMARK  174  A    between atoms: _443  and  _446
REMARK  175  A    between atoms: _449  and  _451
REMARK  176  A    between atoms: _451  and  _452
REMARK  177  A    between atoms: _451  and  _454
REMARK  178  A    between atoms: _454  and  _455
REMARK  179  A    between atoms: _457  and  _459
REMARK  180  A    between atoms: _459  and  _460
REMARK  181  A    between atoms: _459  and  _462
REMARK  182  A    between atoms: _462  and  _463
REMARK  183  A    between atoms: _468  and  _469
REMARK  184  A    between atoms: _471  and  _473
REMARK  185  A    between atoms: _473  and  _474
REMARK  186  A    between atoms: _473  and  _476
REMARK  187  A    between atoms: _476  and  _477
REMARK  188  A    between atoms: _482  and  _483
REMARK  189  A    between atoms: _485  and  _487
REMARK  190  A    between atoms: _487  and  _488
REMARK  191  A    between atoms: _487  and  _490
REMARK  192  A    between atoms: _490  and  _491
REMARK  193  A    between atoms: _494  and  _496
REMARK  194  A    between atoms: _496  and  _497
REMARK  195  A    between atoms: _496  and  _499
REMARK  196  A    between atoms: _503  and  _504
REMARK  197  A    between atoms: _509  and  _511
REMARK  198  A    between atoms: _511  and  _512
REMARK  199  A    between atoms: _511  and  _514
REMARK  200  A    between atoms: _514  and  _515
REMARK  201  A    between atoms: _520  and  _521
REMARK  202  A    between atoms: _523  and  _525
REMARK  203  A    between atoms: _525  and  _526
REMARK  204  A    between atoms: _525  and  _528
REMARK  205  A    between atoms: _528  and  _529
REMARK  206  A    between atoms: _534  and  _535
REMARK  207  A    between atoms: _537  and  _539
REMARK  208  A    between atoms: _539  and  _540
REMARK  209  A    between atoms: _539  and  _542
REMARK  210  A    between atoms: _542  and  _543
REMARK  211  A    between atoms: _545  and  _547
REMARK  212  A    between atoms: _547  and  _548
REMARK  213  A    between atoms: _547  and  _550
REMARK  214  A    between atoms: _550  and  _551
REMARK  215  A    between atoms: _554  and  _556
REMARK  216  A    between atoms: _556  and  _557
REMARK  217  A    between atoms: _556  and  _559
REMARK  218  A    between atoms: _559  and  _560
REMARK  219  A    between atoms: _565  and  _566
REMARK  220  A    between atoms: _568  and  _570
REMARK  221  A    between atoms: _570  and  _571
REMARK  222  A    between atoms: _570  and  _573
REMARK  223  A    between atoms: _573  and  _574
REMARK  224  A    between atoms: _579  and  _580
REMARK  225  A    between atoms: _582  and  _584
REMARK  226  A    between atoms: _584  and  _585
REMARK  227  A    between atoms: _587  and  _589
REMARK  228  A    between atoms: _589  and  _590
REMARK  229  A    between atoms: _589  and  _592
REMARK  230  A    between atoms: _592  and  _593
REMARK  231  A    between atoms: _595  and  _597
REMARK  232  A    between atoms: _597  and  _598
REMARK  233  A    between atoms: _597  and  _600
REMARK  234  A    between atoms: _600  and  _601
REMARK  235  A    between atoms: _606  and  _608
REMARK  236  A    between atoms: _608  and  _609
REMARK  237  A    between atoms: _608  and  _611
REMARK  238  A    between atoms: _611  and  _612
REMARK  239  A    between atoms: _617  and  _618
REMARK                            x       y       z     vdW  Elec       q    Type
REMARK                         _______ _______ _______ _____ _____    ______ ____
ROOT
ATOM      1  CB  PHE A   1      15.159  -8.142 -18.043  0.00  0.00    +0.051 C 
ENDROOT
BRANCH   1   2
ATOM      2  CG  PHE A   1      15.120  -7.126 -16.922  0.00  0.00    -0.020 A 
ATOM      3  CD2 PHE A   1      13.960  -6.925 -16.185  0.00  0.00    -0.004 A 
ATOM      4  CE2 PHE A   1      13.937  -6.004 -15.146  0.00  0.00    -0.000 A 
ATOM      5  CZ  PHE A   1      15.065  -5.267 -14.837  0.00  0.00    -0.000 A 
ATOM      6  CE1 PHE A   1      16.201  -5.454 -15.555  0.00  0.00    -0.000 A 
ATOM      7  CD1 PHE A   1      16.231  -6.370 -16.603  0.00  0.00    -0.004 A 
ENDBRANCH   1   2
BRANCH   1   8
ATOM      8  CA  PHE A   1      16.482  -8.904 -18.147  0.00  0.00    +0.137 C 
BRANCH   8   9
ATOM      9  N   PHE A   1      17.480  -8.167 -18.943  0.00  0.00    -0.239 NA
ATOM     10  H   PHE A   1      17.203  -7.805 -19.878  0.00  0.00    +0.142 HD
ENDBRANCH   8   9
BRANCH   8  11
ATOM     11  C   PHE A   1      16.276 -10.323 -18.684  0.00  0.00    +0.224 C 
ATOM     12  O   PHE A   1      15.401 -11.028 -18.228  0.00  0.00    -0.287 OA
ENDBRANCH   8  11
ENDBRANCH   1   8
TORSDOF 4
REMARK  Name = ../refined-set-2016/2qbw/2qbw_pocket.pdb
REMARK  239 active torsions:
REMARK  status: ('A' for Active; 'I' for Inactive)
REMARK    1  A    between atoms: _1  and  _5
REMARK    2  A    between atoms: _5  and  _6
REMARK    3  A    between atoms: _5  and  _8
REMARK    4  A    between atoms: _8  and  _9
REMARK    5  A    between atoms: _12  and  _13
REMARK    6  A    between atoms: _18  and  _20
REMARK    7  A    between atoms: _20  and  _21
REMARK    8  A    between atoms: _20  and  _23
REMARK    9  A    between atoms: _23  and  _24
REMARK   10  A    between atoms: _24  and  _25
REMARK   11  A    between atoms: _28  and  _30
REMARK   12  A    between atoms: _30  and  _31
REMARK   13  A    between atoms: _30  and  _33
REMARK   14  A    between atoms: _33  and  _34
REMARK   15  A    between atoms: _37  and  _39
REMARK   16  A    between atoms: _39  and  _40
REMARK   17  A    between atoms: _42  and  _44
REMARK   18  A    between atoms: _44  and  _45
REMARK   19  A    between atoms: _44  and  _47
REMARK   20  A    between atoms: _47  and  _48
REMARK   21  A    between atoms: _54  and  _56
REMARK   22  A    between atoms: _56  and  _57
REMARK   23  A    between atoms: _56  and  _59
REMARK   24  A    between atoms: _59  and  _60
REMARK   25  A    between atoms: _62  and  _64
REMARK   26  A    between atoms: _64  and  _65
REMARK   27  A    between atoms: _64  and  _67
REMARK   28  A    between atoms: _67  and  _68
REMARK   29  A    between atoms: _71  and  _73
REMARK   30  A    between atoms: _73  and  _74
REMARK   31  A    between atoms: _73  and  _76
REMARK   32  A    between atoms: _76  and  _77
REMARK   33  A    between atoms: _79  and  _81
REMARK   34  A    between atoms: _81  and  _82
REMARK   35  A    between atoms: _84  and  _86
REMARK   36  A    between atoms: _86  and  _87
REMARK   37  A    between atoms: _89  and  _91
REMARK   38  A    between atoms: _91  and  _92
REMARK   39  A    between atoms: _94  and  _96
REMARK   40  A    between atoms: _96  and  _97
REMARK   41  A    between atoms: _96  and  _99
REMARK   42  A    between atoms: _99  and  _100
REMARK   43  A    between atoms: _100  and  _101
REMARK   44  A    between atoms: _101  and  _102
REMARK   45  A    between atoms: _111  and  _113
REMARK   46  A    between atoms: _113  and  _114
REMARK   47  A    between atoms: _116  and  _118
REMARK   48  A    between atoms: _118  and  _119
REMARK   49  A    between atoms: _118  and  _121
REMARK   50  A    between atoms: _121  and  _122
REMARK   51  A    between atoms: _128  and  _129
REMARK   52  A    between atoms: _134  and  _136
REMARK   53  A    between atoms: _136  and  _137
REMARK   54  A    between atoms: _136  and  _139
REMARK   55  A    between atoms: _139  and  _140
REMARK   56  A    between atoms: _146  and  _148
REMARK   57  A    between atoms: _148  and  _149
REMARK   58  A    between atoms: _148  and  _151
REMARK   59  A    between atoms: _151  and  _152
REMARK   60  A    between atoms: _155  and  _157
REMARK   61  A    between atoms: _157  and  _158
REMARK   62  A    between atoms: _157  and  _160
REMARK   63  A    between atoms: _160  and  _161
REMARK   64  A    between atoms: _167  and  _169
REMARK   65  A    between atoms: _169  and  _170
REMARK   66  A    between atoms: _169  and  _172
REMARK   67  A    between atoms: _175  and  _177
REMARK   68  A    between atoms: _177  and  _178
REMARK   69  A    between atoms: _177  and  _180
REMARK   70  A    between atoms: _180  and  _181
REMARK   71  A    between atoms: _184  and  _186
REMARK   72  A    between atoms: _186  and  _187
REMARK   73  A    between atoms: _186  and  _189
REMARK   74  A    between atoms: _189  and  _190
REMARK   75  A    between atoms: _190  and  _191
REMARK   76  A    between atoms: _191  and  _192
REMARK   77  A    between atoms: _201  and  _203
REMARK   78  A    between atoms: _203  and  _204
REMARK   79  A    between atoms: _203  and  _206
REMARK   80  A    between atoms: _209  and  _211
REMARK   81  A    between atoms: _211  and  _212
REMARK   82  A    between atoms: _211  and  _214
REMARK   83  A    between atoms: _214  and  _215
REMARK   84  A    between atoms: _215  and  _216
REMARK   85  A    between atoms: _222  and  _223
REMARK   86  A    between atoms: _229  and  _230
REMARK   87  A    between atoms: _235  and  _237
REMARK   88  A    between atoms: _237  and  _238
REMARK   89  A    between atoms: _241  and  _243
REMARK   90  A    between atoms: _243  and  _244
REMARK   91  A    between atoms: _243  and  _246
REMARK   92  A    between atoms: _246  and  _247
REMARK   93  A    between atoms: _250  and  _252
REMARK   94  A    between atoms: _252  and  _253
REMARK   95  A    between atoms: _252  and  _255
REMARK   96  A    between atoms: _255  and  _256
REMARK   97  A    between atoms: _259  and  _261
REMARK   98  A    between atoms: _261  and  _262
REMARK   99  A    between atoms: _261  and  _264
REMARK  100  A    between atoms: _264  and  _265
REMARK  101  A    between atoms: _271  and  _273
REMARK  102  A    between atoms: _273  and  _274
REMARK  103  A    between atoms: _273  and  _276
REMARK  104  A    between atoms: _276  and  _277
REMARK  105  A    between atoms: _282  and  _284
REMARK  106  A    between atoms: _284  and  _285
REMARK  107  A    between atoms: _287  and  _289
REMARK  108  A    between atoms: _289  and  _290
REMARK  109  A    between atoms: _293  and  _295
REMARK  110  A    between atoms: _295  and  _296
REMARK  111  A    between atoms: _295  and  _298
REMARK  112  A    between atoms: _301  and  _303
REMARK  113  A    between atoms: _303  and  _304
REMARK  114  A    between atoms: _303  and  _306
REMARK  115  A    between atoms: _306  and  _307
REMARK  116  A    between atoms: _309  and  _311
REMARK  117  A    between atoms: _311  and  _312
REMARK  118  A    between atoms: _311  and  _314
REMARK  119  A    between atoms: _314  and  _315
REMARK  120  A    between atoms: _318  and  _320
REMARK  121  A    between atoms: _320  and  _321
REMARK  122  A    between atoms: _320  and  _323
REMARK  123  A    between atoms: _323  and  _324
REMARK  124  A    between atoms: _327  and  _329
REMARK  125  A    between atoms: _329  and  _330
REMARK  126  A    between atoms: _329  and  _332
REMARK  127  A    between atoms: _332  and  _333
REMARK  128  A    between atoms: _333  and  _334
REMARK  129  A    between atoms: _334  and  _335
REMARK  130  A    between atoms: _335  and  _336
REMARK  131  A    between atoms: _340  and  _342
REMARK  132  A    between atoms: _342  and  _343
REMARK  133  A    between atoms: _342  and  _345
REMARK  134  A    between atoms: _345  and  _346
REMARK  135  A    between atoms: _349  and  _351
REMARK  136  A    between atoms: _351  and  _352
REMARK  137  A    between atoms: _351  and  _354
REMARK  138  A    between atoms: _354  and  _355
REMARK  139  A    between atoms: _361  and  _363
REMARK  140  A    between atoms: _363  and  _364
REMARK  141  A    between atoms: _363  and  _366
REMARK  142  A    between atoms: _369  and  _371
REMARK  143  A    between atoms: _371  and  _372
REMARK  144  A    between atoms: _371  and  _374
REMARK  145  A    between atoms: _374  and  _375
REMARK  146  A    between atoms: _378  and  _380
REMARK  147  A    between atoms: _380  and  _381
REMARK  148  A    between atoms: _380  and  _383
REMARK  149  A    between atoms: _386  and  _388
REMARK  150  A    between atoms: _388  and  _389
REMARK  151  A    between atoms: _388  and  _391
REMARK  152  A    between atoms: _391  and  _392
REMARK  153  A    between atoms: _392  and  _393
REMARK  154  A    between atoms: _393  and  _394
REMARK  155  A    between atoms: _394  and  _395
REMARK  156  A    between atoms: _399  and  _401
REMARK  157  A    between atoms: _401  and  _402
REMARK  158  A    between atoms: _401  and  _404
REMARK  159  A    between atoms: _404  and  _405
REMARK  160  A    between atoms: _408  and  _410
REMARK  161  A    between atoms: _410  and  _411
REMARK  162  A    between atoms: _410  and  _413
REMARK  163  A    between atoms: _413  and  _414
REMARK  164  A    between atoms: _419  and  _420
REMARK  165  A    between atoms: _422  and  _424
REMARK  166  A    between atoms: _424  and  _425
REMARK  167  A    between atoms: _424  and  _427
REMARK  168  A    between atoms: _427  and  _428
REMARK  169  A    between atoms: _433  and  _434
REMARK  170  A    between atoms: _436  and  _438
REMARK  171  A    between atoms: _438  and  _439
REMARK  172  A    between atoms: _441  and  _443
REMARK  173  A    between atoms: _443  and  _444
REMARK  174  A    between atoms: _443  and  _446
REMARK  175  A    between atoms: _449  and  _451
REMARK  176  A    between atoms: _451  and  _452
REMARK  177  A    between atoms: _451  and  _454
REMARK  178  A    between atoms: _454  and  _455
REMARK  179  A    between atoms: _457  and  _459
REMARK  180  A    between atoms: _459  and  _460
REMARK  181  A    between atoms: _459  and  _462
REMARK  182  A    between atoms: _462  and  _463
REMARK  183  A    between atoms: _468  and  _469
REMARK  184  A    between atoms: _471  and  _473
REMARK  185  A    between atoms: _473  and  _474
REMARK  186  A    between atoms: _473  and  _476
REMARK  187  A    between atoms: _476  and  _477
REMARK  188  A    between atoms: _482  and  _483
REMARK  189  A    between atoms: _485  and  _487
REMARK  190  A    between atoms: _487  and  _488
REMARK  191  A    between atoms: _487  and  _490
REMARK  192  A    between atoms: _490  and  _491
REMARK  193  A    between atoms: _494  and  _496
REMARK  194  A    between atoms: _496  and  _497
REMARK  195  A    between atoms: _496  and  _499
REMARK  196  A    between atoms: _503  and  _504
REMARK  197  A    between atoms: _509  and  _511
REMARK  198  A    between atoms: _511  and  _512
REMARK  199  A    between atoms: _511  and  _514
REMARK  200  A    between atoms: _514  and  _515
REMARK  201  A    between atoms: _520  and  _521
REMARK  202  A    between atoms: _523  and  _525
REMARK  203  A    between atoms: _525  and  _526
REMARK  204  A    between atoms: _525  and  _528
REMARK  205  A    between atoms: _528  and  _529
REMARK  206  A    between atoms: _534  and  _535
REMARK  207  A    between atoms: _537  and  _539
REMARK  208  A    between atoms: _539  and  _540
REMARK  209  A    between atoms: _539  and  _542
REMARK  210  A    between atoms: _542  and  _543
REMARK  211  A    between atoms: _545  and  _547
REMARK  212  A    between atoms: _547  and  _548
REMARK  213  A    between atoms: _547  and  _550
REMARK  214  A    between atoms: _550  and  _551
REMARK  215  A    between atoms: _554  and  _556
REMARK  216  A    between atoms: _556  and  _557
REMARK  217  A    between atoms: _556  and  _559
REMARK  218  A    between atoms: _559  and  _560
REMARK  219  A    between atoms: _565  and  _566
REMARK  220  A    between atoms: _568  and  _570
REMARK  221  A    between atoms: _570  and  _571
REMARK  222  A    between atoms: _570  and  _573
REMARK  223  A    between atoms: _573  and  _574
REMARK  224  A    between atoms: _579  and  _580
REMARK  225  A    between atoms: _582  and  _584
REMARK  226  A    between atoms: _584  and  _585
REMARK  227  A    between atoms: _587  and  _589
REMARK  228  A    between atoms: _589  and  _590
REMARK  229  A    between atoms: _589  and  _592
REMARK  230  A    between atoms: _592  and  _593
REMARK  231  A    between atoms: _595  and  _597
REMARK  232  A    between atoms: _597  and  _598
REMARK  233  A    between atoms: _597  and  _600
REMARK  234  A    between atoms: _600  and  _601
REMARK  235  A    between atoms: _606  and  _608
REMARK  236  A    between atoms: _608  and  _609
REMARK  237  A    between atoms: _608  and  _611
REMARK  238  A    between atoms: _611  and  _612
REMARK  239  A    between atoms: _617  and  _618
REMARK                            x       y       z     vdW  Elec       q    Type
REMARK                         _______ _______ _______ _____ _____    ______ ____
ROOT
ATOM      1  CA  HIS A   1      12.212 -12.386 -10.206  0.00  0.00    +0.151 C 
ENDROOT
BRANCH   1   2
ATOM      2  C   HIS A   1      12.720 -11.307  -9.247  0.00  0.00    +0.239 C 
ATOM      3  N   GLY A   2      13.233 -11.744  -8.112  0.00  0.00    -0.297 N 
ATOM      4  H   GLY A   2      13.244 -12.766  -7.918  0.00  0.00    +0.150 HD
ATOM      5  O   HIS A   1      12.625 -10.104  -9.500  0.00  0.00    -0.274 OA
BRANCH   3   6
ATOM      6  CA  GLY A   2      13.785 -10.824  -7.124  0.00  0.00    +0.163 C 
BRANCH   6   7
ATOM      7  C   GLY A   2      14.915  -9.964  -7.599  0.00  0.00    +0.229 C 
ATOM      8  O   GLY A   2      15.030  -8.806  -7.183  0.00  0.00    -0.286 OA
ENDBRANCH   6   7
ENDBRANCH   3   6
ENDBRANCH   1   2
BRANCH   1   9
ATOM      9  N   HIS A   1      13.227 -13.354 -10.554  0.00  0.00    -0.238 NA
ATOM     10  H   HIS A   1      13.064 -14.365 -10.372  0.00  0.00    +0.142 HD
ENDBRANCH   1   9
BRANCH   1  11
ATOM     11  CB  HIS A   1      10.988 -13.089  -9.574  0.00  0.00    +0.074 C 
BRANCH  11  12
ATOM     12  CG  HIS A   1       9.818 -12.176  -9.421  0.00  0.00    +0.082 A 
ATOM     13  ND1 HIS A   1       9.586 -11.439  -8.278  0.00  0.00    -0.227 NA
ATOM     14  CE1 HIS A   1       8.515 -10.686  -8.463  0.00  0.00    +0.199 A 
ATOM     15  NE2 HIS A   1       8.028 -10.929  -9.662  0.00  0.00    -0.221 NA
ATOM     16  CD2 HIS A   1       8.822 -11.863 -10.282  0.00  0.00    +0.115 A 
ENDBRANCH  11  12
ENDBRANCH   1  11
TORSDOF 6
REMARK  Name = ../refined-set-2016/2qbw/2qbw_pocket.pdb
REMARK  239 active torsions:
REMARK  status: ('A' for Active; 'I' for Inactive)
REMARK    1  A    between atoms: _1  and  _5
REMARK    2  A    between atoms: _5  and  _6
REMARK    3  A    between atoms: _5  and  _8
REMARK    4  A    between atoms: _8  and  _9
REMARK    5  A    between atoms: _12  and  _13
REMARK    6  A    between atoms: _18  and  _20
REMARK    7  A    between atoms: _20  and  _21
REMARK    8  A    between atoms: _20  and  _23
REMARK    9  A    between atoms: _23  and  _24
REMARK   10  A    between atoms: _24  and  _25
REMARK   11  A    between atoms: _28  and  _30
REMARK   12  A    between atoms: _30  and  _31
REMARK   13  A    between atoms: _30  and  _33
REMARK   14  A    between atoms: _33  and  _34
REMARK   15  A    between atoms: _37  and  _39
REMARK   16  A    between atoms: _39  and  _40
REMARK   17  A    between atoms: _42  and  _44
REMARK   18  A    between atoms: _44  and  _45
REMARK   19  A    between atoms: _44  and  _47
REMARK   20  A    between atoms: _47  and  _48
REMARK   21  A    between atoms: _54  and  _56
REMARK   22  A    between atoms: _56  and  _57
REMARK   23  A    between atoms: _56  and  _59
REMARK   24  A    between atoms: _59  and  _60
REMARK   25  A    between atoms: _62  and  _64
REMARK   26  A    between atoms: _64  and  _65
REMARK   27  A    between atoms: _64  and  _67
REMARK   28  A    between atoms: _67  and  _68
REMARK   29  A    between atoms: _71  and  _73
REMARK   30  A    between atoms: _73  and  _74
REMARK   31  A    between atoms: _73  and  _76
REMARK   32  A    between atoms: _76  and  _77
REMARK   33  A    between atoms: _79  and  _81
REMARK   34  A    between atoms: _81  and  _82
REMARK   35  A    between atoms: _84  and  _86
REMARK   36  A    between atoms: _86  and  _87
REMARK   37  A    between atoms: _89  and  _91
REMARK   38  A    between atoms: _91  and  _92
REMARK   39  A    between atoms: _94  and  _96
REMARK   40  A    between atoms: _96  and  _97
REMARK   41  A    between atoms: _96  and  _99
REMARK   42  A    between atoms: _99  and  _100
REMARK   43  A    between atoms: _100  and  _101
REMARK   44  A    between atoms: _101  and  _102
REMARK   45  A    between atoms: _111  and  _113
REMARK   46  A    between atoms: _113  and  _114
REMARK   47  A    between atoms: _116  and  _118
REMARK   48  A    between atoms: _118  and  _119
REMARK   49  A    between atoms: _118  and  _121
REMARK   50  A    between atoms: _121  and  _122
REMARK   51  A    between atoms: _128  and  _129
REMARK   52  A    between atoms: _134  and  _136
REMARK   53  A    between atoms: _136  and  _137
REMARK   54  A    between atoms: _136  and  _139
REMARK   55  A    between atoms: _139  and  _140
REMARK   56  A    between atoms: _146  and  _148
REMARK   57  A    between atoms: _148  and  _149
REMARK   58  A    between atoms: _148  and  _151
REMARK   59  A    between atoms: _151  and  _152
REMARK   60  A    between atoms: _155  and  _157
REMARK   61  A    between atoms: _157  and  _158
REMARK   62  A    between atoms: _157  and  _160
REMARK   63  A    between atoms: _160  and  _161
REMARK   64  A    between atoms: _167  and  _169
REMARK   65  A    between atoms: _169  and  _170
REMARK   66  A    between atoms: _169  and  _172
REMARK   67  A    between atoms: _175  and  _177
REMARK   68  A    between atoms: _177  and  _178
REMARK   69  A    between atoms: _177  and  _180
REMARK   70  A    between atoms: _180  and  _181
REMARK   71  A    between atoms: _184  and  _186
REMARK   72  A    between atoms: _186  and  _187
REMARK   73  A    between atoms: _186  and  _189
REMARK   74  A    between atoms: _189  and  _190
REMARK   75  A    between atoms: _190  and  _191
REMARK   76  A    between atoms: _191  and  _192
REMARK   77  A    between atoms: _201  and  _203
REMARK   78  A    between atoms: _203  and  _204
REMARK   79  A    between atoms: _203  and  _206
REMARK   80  A    between atoms: _209  and  _211
REMARK   81  A    between atoms: _211  and  _212
REMARK   82  A    between atoms: _211  and  _214
REMARK   83  A    between atoms: _214  and  _215
REMARK   84  A    between atoms: _215  and  _216
REMARK   85  A    between atoms: _222  and  _223
REMARK   86  A    between atoms: _229  and  _230
REMARK   87  A    between atoms: _235  and  _237
REMARK   88  A    between atoms: _237  and  _238
REMARK   89  A    between atoms: _241  and  _243
REMARK   90  A    between atoms: _243  and  _244
REMARK   91  A    between atoms: _243  and  _246
REMARK   92  A    between atoms: _246  and  _247
REMARK   93  A    between atoms: _250  and  _252
REMARK   94  A    between atoms: _252  and  _253
REMARK   95  A    between atoms: _252  and  _255
REMARK   96  A    between atoms: _255  and  _256
REMARK   97  A    between atoms: _259  and  _261
REMARK   98  A    between atoms: _261  and  _262
REMARK   99  A    between atoms: _261  and  _264
REMARK  100  A    between atoms: _264  and  _265
REMARK  101  A    between atoms: _271  and  _273
REMARK  102  A    between atoms: _273  and  _274
REMARK  103  A    between atoms: _273  and  _276
REMARK  104  A    between atoms: _276  and  _277
REMARK  105  A    between atoms: _282  and  _284
REMARK  106  A    between atoms: _284  and  _285
REMARK  107  A    between atoms: _287  and  _289
REMARK  108  A    between atoms: _289  and  _290
REMARK  109  A    between atoms: _293  and  _295
REMARK  110  A    between atoms: _295  and  _296
REMARK  111  A    between atoms: _295  and  _298
REMARK  112  A    between atoms: _301  and  _303
REMARK  113  A    between atoms: _303  and  _304
REMARK  114  A    between atoms: _303  and  _306
REMARK  115  A    between atoms: _306  and  _307
REMARK  116  A    between atoms: _309  and  _311
REMARK  117  A    between atoms: _311  and  _312
REMARK  118  A    between atoms: _311  and  _314
REMARK  119  A    between atoms: _314  and  _315
REMARK  120  A    between atoms: _318  and  _320
REMARK  121  A    between atoms: _320  and  _321
REMARK  122  A    between atoms: _320  and  _323
REMARK  123  A    between atoms: _323  and  _324
REMARK  124  A    between atoms: _327  and  _329
REMARK  125  A    between atoms: _329  and  _330
REMARK  126  A    between atoms: _329  and  _332
REMARK  127  A    between atoms: _332  and  _333
REMARK  128  A    between atoms: _333  and  _334
REMARK  129  A    between atoms: _334  and  _335
REMARK  130  A    between atoms: _335  and  _336
REMARK  131  A    between atoms: _340  and  _342
REMARK  132  A    between atoms: _342  and  _343
REMARK  133  A    between atoms: _342  and  _345
REMARK  134  A    between atoms: _345  and  _346
REMARK  135  A    between atoms: _349  and  _351
REMARK  136  A    between atoms: _351  and  _352
REMARK  137  A    between atoms: _351  and  _354
REMARK  138  A    between atoms: _354  and  _355
REMARK  139  A    between atoms: _361  and  _363
REMARK  140  A    between atoms: _363  and  _364
REMARK  141  A    between atoms: _363  and  _366
REMARK  142  A    between atoms: _369  and  _371
REMARK  143  A    between atoms: _371  and  _372
REMARK  144  A    between atoms: _371  and  _374
REMARK  145  A    between atoms: _374  and  _375
REMARK  146  A    between atoms: _378  and  _380
REMARK  147  A    between atoms: _380  and  _381
REMARK  148  A    between atoms: _380  and  _383
REMARK  149  A    between atoms: _386  and  _388
REMARK  150  A    between atoms: _388  and  _389
REMARK  151  A    between atoms: _388  and  _391
REMARK  152  A    between atoms: _391  and  _392
REMARK  153  A    between atoms: _392  and  _393
REMARK  154  A    between atoms: _393  and  _394
REMARK  155  A    between atoms: _394  and  _395
REMARK  156  A    between atoms: _399  and  _401
REMARK  157  A    between atoms: _401  and  _402
REMARK  158  A    between atoms: _401  and  _404
REMARK  159  A    between atoms: _404  and  _405
REMARK  160  A    between atoms: _408  and  _410
REMARK  161  A    between atoms: _410  and  _411
REMARK  162  A    between atoms: _410  and  _413
REMARK  163  A    between atoms: _413  and  _414
REMARK  164  A    between atoms: _419  and  _420
REMARK  165  A    between atoms: _422  and  _424
REMARK  166  A    between atoms: _424  and  _425
REMARK  167  A    between atoms: _424  and  _427
REMARK  168  A    between atoms: _427  and  _428
REMARK  169  A    between atoms: _433  and  _434
REMARK  170  A    between atoms: _436  and  _438
REMARK  171  A    between atoms: _438  and  _439
REMARK  172  A    between atoms: _441  and  _443
REMARK  173  A    between atoms: _443  and  _444
REMARK  174  A    between atoms: _443  and  _446
REMARK  175  A    between atoms: _449  and  _451
REMARK  176  A    between atoms: _451  and  _452
REMARK  177  A    between atoms: _451  and  _454
REMARK  178  A    between atoms: _454  and  _455
REMARK  179  A    between atoms: _457  and  _459
REMARK  180  A    between atoms: _459  and  _460
REMARK  181  A    between atoms: _459  and  _462
REMARK  182  A    between atoms: _462  and  _463
REMARK  183  A    between atoms: _468  and  _469
REMARK  184  A    between atoms: _471  and  _473
REMARK  185  A    between atoms: _473  and  _474
REMARK  186  A    between atoms: _473  and  _476
REMARK  187  A    between atoms: _476  and  _477
REMARK  188  A    between atoms: _482  and  _483
REMARK  189  A    between atoms: _485  and  _487
REMARK  190  A    between atoms: _487  and  _488
REMARK  191  A    between atoms: _487  and  _490
REMARK  192  A    between atoms: _490  and  _491
REMARK  193  A    between atoms: _494  and  _496
REMARK  194  A    between atoms: _496  and  _497
REMARK  195  A    between atoms: _496  and  _499
REMARK  196  A    between atoms: _503  and  _504
REMARK  197  A    between atoms: _509  and  _511
REMARK  198  A    between atoms: _511  and  _512
REMARK  199  A    between atoms: _511  and  _514
REMARK  200  A    between atoms: _514  and  _515
REMARK  201  A    between atoms: _520  and  _521
REMARK  202  A    between atoms: _523  and  _525
REMARK  203  A    between atoms: _525  and  _526
REMARK  204  A    between atoms: _525  and  _528
REMARK  205  A    between atoms: _528  and  _529
REMARK  206  A    between atoms: _534  and  _535
REMARK  207  A    between atoms: _537  and  _539
REMARK  208  A    between atoms: _539  and  _540
REMARK  209  A    between atoms: _539  and  _542
REMARK  210  A    between atoms: _542  and  _543
REMARK  211  A    between atoms: _545  and  _547
REMARK  212  A    between atoms: _547  and  _548
REMARK  213  A    between atoms: _547  and  _550
REMARK  214  A    between atoms: _550  and  _551
REMARK  215  A    between atoms: _554  and  _556
REMARK  216  A    between atoms: _556  and  _557
REMARK  217  A    between atoms: _556  and  _559
REMARK  218  A    between atoms: _559  and  _560
REMARK  219  A    between atoms: _565  and  _566
REMARK  220  A    between atoms: _568  and  _570
REMARK  221  A    between atoms: _570  and  _571
REMARK  222  A    between atoms: _570  and  _573
REMARK  223  A    between atoms: _573  and  _574
REMARK  224  A    between atoms: _579  and  _580
REMARK  225  A    between atoms: _582  and  _584
REMARK  226  A    between atoms: _584  and  _585
REMARK  227  A    between atoms: _587  and  _589
REMARK  228  A    between atoms: _589  and  _590
REMARK  229  A    between atoms: _589  and  _592
REMARK  230  A    between atoms: _592  and  _593
REMARK  231  A    between atoms: _595  and  _597
REMARK  232  A    between atoms: _597  and  _598
REMARK  233  A    between atoms: _597  and  _600
REMARK  234  A    between atoms: _600  and  _601
REMARK  235  A    between atoms: _606  and  _608
REMARK  236  A    between atoms: _608  and  _609
REMARK  237  A    between atoms: _608  and  _611
REMARK  238  A    between atoms: _611  and  _612
REMARK  239  A    between atoms: _617  and  _618
REMARK                            x       y       z     vdW  Elec       q    Type
REMARK                         _______ _______ _______ _____ _____    ______ ____
ROOT
ATOM      1  CA  LEU A   5      14.265  -1.723 -10.911  0.00  0.00    +0.149 C 
ENDROOT
BRANCH   1   4
ATOM      2  C   LEU A   4      16.456  -2.517 -10.249  0.00  0.00    +0.241 C 
ATOM      3  O   LEU A   4      16.902  -1.362 -10.184  0.00  0.00    -0.273 OA
ATOM      4  N   LEU A   5      15.195  -2.790 -10.560  0.00  0.00    -0.297 N 
ATOM      5  H   LEU A   5      14.866  -3.777 -10.553  0.00  0.00    +0.150 HD
BRANCH   2   6
ATOM      6  CA  LEU A   4      17.345  -3.720  -9.988  0.00  0.00    +0.149 C 
BRANCH   6   9
ATOM      7  C   SER A   3      16.532  -4.249  -7.768  0.00  0.00    +0.243 C 
ATOM      8  O   SER A   3      16.882  -3.136  -7.354  0.00  0.00    -0.273 OA
ATOM      9  N   LEU A   4      16.751  -4.646  -9.020  0.00  0.00    -0.297 N 
ATOM     10  H   LEU A   4      16.501  -5.613  -9.311  0.00  0.00    +0.150 HD
BRANCH   7  11
ATOM     11  CA  SER A   3      15.837  -5.216  -6.811  0.00  0.00    +0.178 C 
BRANCH  11  13
ATOM     12  C   VAL A   2      13.720  -5.303  -7.990  0.00  0.00    +0.241 C 
ATOM     13  N   SER A   3      14.780  -5.939  -7.485  0.00  0.00    -0.295 N 
ATOM     14  H   SER A   3      14.847  -6.973  -7.578  0.00  0.00    +0.150 HD
ATOM     15  O   VAL A   2      13.602  -4.045  -7.952  0.00  0.00    -0.273 OA
BRANCH  12  16
ATOM     16  CA  VAL A   2      12.656  -6.178  -8.652  0.00  0.00    +0.148 C 
BRANCH  16  18
ATOM     17  C   ALA A   1      13.968  -6.724 -10.641  0.00  0.00    +0.238 C 
ATOM     18  N   VAL A   2      13.271  -7.134  -9.576  0.00  0.00    -0.297 N 
ATOM     19  H   VAL A   2      13.163  -8.153  -9.400  0.00  0.00    +0.150 HD
ATOM     20  O   ALA A   1      14.126  -5.502 -10.918  0.00  0.00    -0.274 OA
BRANCH  17  21
ATOM     21  CA  ALA A   1      14.562  -7.828 -11.513  0.00  0.00    +0.145 C 
ATOM     22  CB  ALA A   1      13.519  -8.490 -12.401  0.00  0.00    +0.028 C 
BRANCH  21  23
ATOM     23  N   ALA A   1      15.214  -8.856 -10.687  0.00  0.00    -0.238 NA
ATOM     24  H   ALA A   1      14.848  -9.829 -10.703  0.00  0.00    +0.142 HD
ENDBRANCH  21  23
ENDBRANCH  17  21
ENDBRANCH  16  18
BRANCH  16  25
ATOM     25  CB  VAL A   2      11.790  -6.913  -7.592  0.00  0.00    +0.027 C 
ATOM     26  CG2 VAL A   2      11.401  -5.952  -6.459  0.00  0.00    +0.002 C 
ATOM     27  CG1 VAL A   2      10.581  -7.553  -8.239  0.00  0.00    +0.002 C 
ENDBRANCH  16  25
ENDBRANCH  12  16
ENDBRANCH  11  13
BRANCH  11  28
ATOM     28  CB  SER A   3      16.858  -6.156  -6.159  0.00  0.00    +0.166 C 
BRANCH  28  29
ATOM     29  OG  SER A   3      16.289  -6.933  -5.115  0.00  0.00    -0.380 OA
ATOM     30  H   SER A   3      15.553  -7.486  -5.480  0.00  0.00    +0.211 HD
ENDBRANCH  28  29
ENDBRANCH  11  28
ENDBRANCH   7  11
ENDBRANCH   6   9
BRANCH   6  31
ATOM     31  CB  LEU A   4      17.654  -4.385 -11.331  0.00  0.00    +0.029 C 
BRANCH  31  32
ATOM     32  CG  LEU A   4      19.102  -4.816 -11.483  0.00  0.00    +0.002 C 
ATOM     33  CD2 LEU A   4      20.062  -3.594 -11.542  0.00  0.00    +0.000 C 
ATOM     34  CD1 LEU A   4      19.235  -5.723 -12.702  0.00  0.00    +0.000 C 
ENDBRANCH  31  32
ENDBRANCH   6  31
ENDBRANCH   2   6
ENDBRANCH   1   4
BRANCH   1  35
ATOM     35  C   LEU A   5      14.097  -0.725  -9.761  0.00  0.00    +0.241 C 
ATOM     36  N   LYS A   6      14.100  -1.242  -8.543  0.00  0.00    -0.297 N 
ATOM     37  H   LYS A   6      14.194  -2.270  -8.419  0.00  0.00    +0.150 HD
ATOM     38  O   LEU A   5      14.004   0.510  -9.970  0.00  0.00    -0.273 OA
BRANCH  36  39
ATOM     39  CA  LYS A   6      13.974  -0.390  -7.384  0.00  0.00    +0.149 C 
BRANCH  39  40
ATOM     40  C   LYS A   6      15.185   0.523  -7.134  0.00  0.00    +0.241 C 
ATOM     41  O   LYS A   6      14.990   1.584  -6.557  0.00  0.00    -0.273 OA
ATOM     42  N   THR A   7      16.396   0.162  -7.597  0.00  0.00    -0.295 N 
ATOM     43  H   THR A   7      16.497  -0.716  -8.145  0.00  0.00    +0.150 HD
BRANCH  42  44
ATOM     44  CA  THR A   7      17.565   0.987  -7.339  0.00  0.00    +0.176 C 
BRANCH  44  45
ATOM     45  C   THR A   7      17.747   2.092  -8.382  0.00  0.00    +0.243 C 
ATOM     46  O   THR A   7      18.523   3.035  -8.161  0.00  0.00    -0.273 OA
ATOM     47  N   PHE A   8      17.046   1.973  -9.511  0.00  0.00    -0.298 N 
ATOM     48  H   PHE A   8      16.393   1.173  -9.634  0.00  0.00    +0.150 HD
BRANCH  47  49
ATOM     49  CA  PHE A   8      17.194   2.965 -10.576  0.00  0.00    +0.141 C 
BRANCH  49  50
ATOM     50  C   PHE A   8      16.683   4.306 -10.111  0.00  0.00    +0.227 C 
ATOM     51  O   PHE A   8      15.660   4.411  -9.441  0.00  0.00    -0.286 OA
ENDBRANCH  49  50
BRANCH  49  52
ATOM     52  CB  PHE A   8      16.492   2.545 -11.880  0.00  0.00    +0.054 C 
BRANCH  52  53
ATOM     53  CG  PHE A   8      17.071   1.313 -12.533  0.00  0.00    -0.020 A 
ATOM     54  CD2 PHE A   8      18.445   1.050 -12.508  0.00  0.00    -0.004 A 
ATOM     55  CE2 PHE A   8      18.970  -0.081 -13.102  0.00  0.00    -0.000 A 
ATOM     56  CZ  PHE A   8      18.130  -0.960 -13.782  0.00  0.00    -0.000 A 
ATOM     57  CE1 PHE A   8      16.755  -0.691 -13.837  0.00  0.00    -0.000 A 
ATOM     58  CD1 PHE A   8      16.242   0.430 -13.213  0.00  0.00    -0.004 A 
ENDBRANCH  52  53
ENDBRANCH  49  52
ENDBRANCH  47  49
ENDBRANCH  44  45
BRANCH  44  59
ATOM     59  CB  THR A   7      18.849   0.134  -7.254  0.00  0.00    +0.137 C 
ATOM     60  CG2 THR A   7      19.258  -0.390  -8.626  0.00  0.00    +0.034 C 
BRANCH  59  61
ATOM     61  OG1 THR A   7      19.898   0.935  -6.715  0.00  0.00    -0.382 OA
ATOM     62  HG1 THR A   7      20.052   1.716  -7.304  0.00  0.00    +0.210 HD
ENDBRANCH  59  61
ENDBRANCH  44  59
ENDBRANCH  42  44
ENDBRANCH  39  40
BRANCH  39  63
ATOM     63  CB  LYS A   6      13.612  -1.222  -6.172  0.00  0.00    +0.029 C 
BRANCH  63  64
ATOM     64  CG  LYS A   6      12.214  -1.795  -6.281  0.00  0.00    +0.000 C 
BRANCH  64  65
ATOM     65  CD  LYS A   6      11.947  -2.547  -5.013  0.00  0.00    -0.024 C 
BRANCH  65  66
ATOM     66  CE  LYS A   6      10.626  -2.268  -4.447  0.00  0.00    -0.086 C 
BRANCH  66  67
ATOM     67  NZ  LYS A   6      10.560  -2.997  -3.141  0.00  0.00    +0.380 N 
ATOM     68  HZ1 LYS A   6      11.314  -2.651  -2.514  0.00  0.00    -0.089 HD
ATOM     69  HZ2 LYS A   6       9.634  -2.829  -2.698  0.00  0.00    -0.089 HD
ATOM     70  HZ3 LYS A   6      10.686  -4.016  -3.307  0.00  0.00    -0.089 HD
ENDBRANCH  66  67
ENDBRANCH  65  66
ENDBRANCH  64  65
ENDBRANCH  63  64
ENDBRANCH  39  63
ENDBRANCH  36  39
ENDBRANCH   1  35
BRANCH   1  71
ATOM     71  CB  LEU A   5      12.924  -2.306 -11.342  0.00  0.00    +0.029 C 
BRANCH  71  72
ATOM     72  CG  LEU A   5      12.878  -2.933 -12.724  0.00  0.00    +0.002 C 
ATOM     73  CD2 LEU A   5      11.625  -3.750 -12.876  0.00  0.00    +0.000 C 
ATOM     74  CD1 LEU A   5      12.920  -1.832 -13.753  0.00  0.00    +0.000 C 
ENDBRANCH  71  72
ENDBRANCH   1  71
TORSDOF 32
REMARK  Name = ../refined-set-2016/2qbw/2qbw_pocket.pdb
REMARK  239 active torsions:
REMARK  status: ('A' for Active; 'I' for Inactive)
REMARK    1  A    between atoms: _1  and  _5
REMARK    2  A    between atoms: _5  and  _6
REMARK    3  A    between atoms: _5  and  _8
REMARK    4  A    between atoms: _8  and  _9
REMARK    5  A    between atoms: _12  and  _13
REMARK    6  A    between atoms: _18  and  _20
REMARK    7  A    between atoms: _20  and  _21
REMARK    8  A    between atoms: _20  and  _23
REMARK    9  A    between atoms: _23  and  _24
REMARK   10  A    between atoms: _24  and  _25
REMARK   11  A    between atoms: _28  and  _30
REMARK   12  A    between atoms: _30  and  _31
REMARK   13  A    between atoms: _30  and  _33
REMARK   14  A    between atoms: _33  and  _34
REMARK   15  A    between atoms: _37  and  _39
REMARK   16  A    between atoms: _39  and  _40
REMARK   17  A    between atoms: _42  and  _44
REMARK   18  A    between atoms: _44  and  _45
REMARK   19  A    between atoms: _44  and  _47
REMARK   20  A    between atoms: _47  and  _48
REMARK   21  A    between atoms: _54  and  _56
REMARK   22  A    between atoms: _56  and  _57
REMARK   23  A    between atoms: _56  and  _59
REMARK   24  A    between atoms: _59  and  _60
REMARK   25  A    between atoms: _62  and  _64
REMARK   26  A    between atoms: _64  and  _65
REMARK   27  A    between atoms: _64  and  _67
REMARK   28  A    between atoms: _67  and  _68
REMARK   29  A    between atoms: _71  and  _73
REMARK   30  A    between atoms: _73  and  _74
REMARK   31  A    between atoms: _73  and  _76
REMARK   32  A    between atoms: _76  and  _77
REMARK   33  A    between atoms: _79  and  _81
REMARK   34  A    between atoms: _81  and  _82
REMARK   35  A    between atoms: _84  and  _86
REMARK   36  A    between atoms: _86  and  _87
REMARK   37  A    between atoms: _89  and  _91
REMARK   38  A    between atoms: _91  and  _92
REMARK   39  A    between atoms: _94  and  _96
REMARK   40  A    between atoms: _96  and  _97
REMARK   41  A    between atoms: _96  and  _99
REMARK   42  A    between atoms: _99  and  _100
REMARK   43  A    between atoms: _100  and  _101
REMARK   44  A    between atoms: _101  and  _102
REMARK   45  A    between atoms: _111  and  _113
REMARK   46  A    between atoms: _113  and  _114
REMARK   47  A    between atoms: _116  and  _118
REMARK   48  A    between atoms: _118  and  _119
REMARK   49  A    between atoms: _118  and  _121
REMARK   50  A    between atoms: _121  and  _122
REMARK   51  A    between atoms: _128  and  _129
REMARK   52  A    between atoms: _134  and  _136
REMARK   53  A    between atoms: _136  and  _137
REMARK   54  A    between atoms: _136  and  _139
REMARK   55  A    between atoms: _139  and  _140
REMARK   56  A    between atoms: _146  and  _148
REMARK   57  A    between atoms: _148  and  _149
REMARK   58  A    between atoms: _148  and  _151
REMARK   59  A    between atoms: _151  and  _152
REMARK   60  A    between atoms: _155  and  _157
REMARK   61  A    between atoms: _157  and  _158
REMARK   62  A    between atoms: _157  and  _160
REMARK   63  A    between atoms: _160  and  _161
REMARK   64  A    between atoms: _167  and  _169
REMARK   65  A    between atoms: _169  and  _170
REMARK   66  A    between atoms: _169  and  _172
REMARK   67  A    between atoms: _175  and  _177
REMARK   68  A    between atoms: _177  and  _178
REMARK   69  A    between atoms: _177  and  _180
REMARK   70  A    between atoms: _180  and  _181
REMARK   71  A    between atoms: _184  and  _186
REMARK   72  A    between atoms: _186  and  _187
REMARK   73  A    between atoms: _186  and  _189
REMARK   74  A    between atoms: _189  and  _190
REMARK   75  A    between atoms: _190  and  _191
REMARK   76  A    between atoms: _191  and  _192
REMARK   77  A    between atoms: _201  and  _203
REMARK   78  A    between atoms: _203  and  _204
REMARK   79  A    between atoms: _203  and  _206
REMARK   80  A    between atoms: _209  and  _211
REMARK   81  A    between atoms: _211  and  _212
REMARK   82  A    between atoms: _211  and  _214
REMARK   83  A    between atoms: _214  and  _215
REMARK   84  A    between atoms: _215  and  _216
REMARK   85  A    between atoms: _222  and  _223
REMARK   86  A    between atoms: _229  and  _230
REMARK   87  A    between atoms: _235  and  _237
REMARK   88  A    between atoms: _237  and  _238
REMARK   89  A    between atoms: _241  and  _243
REMARK   90  A    between atoms: _243  and  _244
REMARK   91  A    between atoms: _243  and  _246
REMARK   92  A    between atoms: _246  and  _247
REMARK   93  A    between atoms: _250  and  _252
REMARK   94  A    between atoms: _252  and  _253
REMARK   95  A    between atoms: _252  and  _255
REMARK   96  A    between atoms: _255  and  _256
REMARK   97  A    between atoms: _259  and  _261
REMARK   98  A    between atoms: _261  and  _262
REMARK   99  A    between atoms: _261  and  _264
REMARK  100  A    between atoms: _264  and  _265
REMARK  101  A    between atoms: _271  and  _273
REMARK  102  A    between atoms: _273  and  _274
REMARK  103  A    between atoms: _273  and  _276
REMARK  104  A    between atoms: _276  and  _277
REMARK  105  A    between atoms: _282  and  _284
REMARK  106  A    between atoms: _284  and  _285
REMARK  107  A    between atoms: _287  and  _289
REMARK  108  A    between atoms: _289  and  _290
REMARK  109  A    between atoms: _293  and  _295
REMARK  110  A    between atoms: _295  and  _296
REMARK  111  A    between atoms: _295  and  _298
REMARK  112  A    between atoms: _301  and  _303
REMARK  113  A    between atoms: _303  and  _304
REMARK  114  A    between atoms: _303  and  _306
REMARK  115  A    between atoms: _306  and  _307
REMARK  116  A    between atoms: _309  and  _311
REMARK  117  A    between atoms: _311  and  _312
REMARK  118  A    between atoms: _311  and  _314
REMARK  119  A    between atoms: _314  and  _315
REMARK  120  A    between atoms: _318  and  _320
REMARK  121  A    between atoms: _320  and  _321
REMARK  122  A    between atoms: _320  and  _323
REMARK  123  A    between atoms: _323  and  _324
REMARK  124  A    between atoms: _327  and  _329
REMARK  125  A    between atoms: _329  and  _330
REMARK  126  A    between atoms: _329  and  _332
REMARK  127  A    between atoms: _332  and  _333
REMARK  128  A    between atoms: _333  and  _334
REMARK  129  A    between atoms: _334  and  _335
REMARK  130  A    between atoms: _335  and  _336
REMARK  131  A    between atoms: _340  and  _342
REMARK  132  A    between atoms: _342  and  _343
REMARK  133  A    between atoms: _342  and  _345
REMARK  134  A    between atoms: _345  and  _346
REMARK  135  A    between atoms: _349  and  _351
REMARK  136  A    between atoms: _351  and  _352
REMARK  137  A    between atoms: _351  and  _354
REMARK  138  A    between atoms: _354  and  _355
REMARK  139  A    between atoms: _361  and  _363
REMARK  140  A    between atoms: _363  and  _364
REMARK  141  A    between atoms: _363  and  _366
REMARK  142  A    between atoms: _369  and  _371
REMARK  143  A    between atoms: _371  and  _372
REMARK  144  A    between atoms: _371  and  _374
REMARK  145  A    between atoms: _374  and  _375
REMARK  146  A    between atoms: _378  and  _380
REMARK  147  A    between atoms: _380  and  _381
REMARK  148  A    between atoms: _380  and  _383
REMARK  149  A    between atoms: _386  and  _388
REMARK  150  A    between atoms: _388  and  _389
REMARK  151  A    between atoms: _388  and  _391
REMARK  152  A    between atoms: _391  and  _392
REMARK  153  A    between atoms: _392  and  _393
REMARK  154  A    between atoms: _393  and  _394
REMARK  155  A    between atoms: _394  and  _395
REMARK  156  A    between atoms: _399  and  _401
REMARK  157  A    between atoms: _401  and  _402
REMARK  158  A    between atoms: _401  and  _404
REMARK  159  A    between atoms: _404  and  _405
REMARK  160  A    between atoms: _408  and  _410
REMARK  161  A    between atoms: _410  and  _411
REMARK  162  A    between atoms: _410  and  _413
REMARK  163  A    between atoms: _413  and  _414
REMARK  164  A    between atoms: _419  and  _420
REMARK  165  A    between atoms: _422  and  _424
REMARK  166  A    between atoms: _424  and  _425
REMARK  167  A    between atoms: _424  and  _427
REMARK  168  A    between atoms: _427  and  _428
REMARK  169  A    between atoms: _433  and  _434
REMARK  170  A    between atoms: _436  and  _438
REMARK  171  A    between atoms: _438  and  _439
REMARK  172  A    between atoms: _441  and  _443
REMARK  173  A    between atoms: _443  and  _444
REMARK  174  A    between atoms: _443  and  _446
REMARK  175  A    between atoms: _449  and  _451
REMARK  176  A    between atoms: _451  and  _452
REMARK  177  A    between atoms: _451  and  _454
REMARK  178  A    between atoms: _454  and  _455
REMARK  179  A    between atoms: _457  and  _459
REMARK  180  A    between atoms: _459  and  _460
REMARK  181  A    between atoms: _459  and  _462
REMARK  182  A    between atoms: _462  and  _463
REMARK  183  A    between atoms: _468  and  _469
REMARK  184  A    between atoms: _471  and  _473
REMARK  185  A    between atoms: _473  and  _474
REMARK  186  A    between atoms: _473  and  _476
REMARK  187  A    between atoms: _476  and  _477
REMARK  188  A    between atoms: _482  and  _483
REMARK  189  A    between atoms: _485  and  _487
REMARK  190  A    between atoms: _487  and  _488
REMARK  191  A    between atoms: _487  and  _490
REMARK  192  A    between atoms: _490  and  _491
REMARK  193  A    between atoms: _494  and  _496
REMARK  194  A    between atoms: _496  and  _497
REMARK  195  A    between atoms: _496  and  _499
REMARK  196  A    between atoms: _503  and  _504
REMARK  197  A    between atoms: _509  and  _511
REMARK  198  A    between atoms: _511  and  _512
REMARK  199  A    between atoms: _511  and  _514
REMARK  200  A    between atoms: _514  and  _515
REMARK  201  A    between atoms: _520  and  _521
REMARK  202  A    between atoms: _523  and  _525
REMARK  203  A    between atoms: _525  and  _526
REMARK  204  A    between atoms: _525  and  _528
REMARK  205  A    between atoms: _528  and  _529
REMARK  206  A    between atoms: _534  and  _535
REMARK  207  A    between atoms: _537  and  _539
REMARK  208  A    between atoms: _539  and  _540
REMARK  209  A    between atoms: _539  and  _542
REMARK  210  A    between atoms: _542  and  _543
REMARK  211  A    between atoms: _545  and  _547
REMARK  212  A    between atoms: _547  and  _548
REMARK  213  A    between atoms: _547  and  _550
REMARK  214  A    between atoms: _550  and  _551
REMARK  215  A    between atoms: _554  and  _556
REMARK  216  A    between atoms: _556  and  _557
REMARK  217  A    between atoms: _556  and  _559
REMARK  218  A    between atoms: _559  and  _560
REMARK  219  A    between atoms: _565  and  _566
REMARK  220  A    between atoms: _568  and  _570
REMARK  221  A    between atoms: _570  and  _571
REMARK  222  A    between atoms: _570  and  _573
REMARK  223  A    between atoms: _573  and  _574
REMARK  224  A    between atoms: _579  and  _580
REMARK  225  A    between atoms: _582  and  _584
REMARK  226  A    between atoms: _584  and  _585
REMARK  227  A    between atoms: _587  and  _589
REMARK  228  A    between atoms: _589  and  _590
REMARK  229  A    between atoms: _589  and  _592
REMARK  230  A    between atoms: _592  and  _593
REMARK  231  A    between atoms: _595  and  _597
REMARK  232  A    between atoms: _597  and  _598
REMARK  233  A    between atoms: _597  and  _600
REMARK  234  A    between atoms: _600  and  _601
REMARK  235  A    between atoms: _606  and  _608
REMARK  236  A    between atoms: _608  and  _609
REMARK  237  A    between atoms: _608  and  _611
REMARK  238  A    between atoms: _611  and  _612
REMARK  239  A    between atoms: _617  and  _618
REMARK                            x       y       z     vdW  Elec       q    Type
REMARK                         _______ _______ _______ _____ _____    ______ ____
ROOT
ATOM      1  CA  VAL A   1      14.060   4.292 -16.317  0.00  0.00    +0.133 C 
ENDROOT
BRANCH   1   2
ATOM      2  CB  VAL A   1      13.295   3.284 -15.479  0.00  0.00    +0.023 C 
ATOM      3  CG2 VAL A   1      13.500   3.554 -14.012  0.00  0.00    +0.002 C 
ATOM      4  CG1 VAL A   1      13.716   1.859 -15.828  0.00  0.00    +0.002 C 
ENDBRANCH   1   2
BRANCH   1   5
ATOM      5  N   VAL A   1      13.665   5.647 -15.996  0.00  0.00    -0.239 NA
ATOM      6  H   VAL A   1      12.681   5.944 -16.154  0.00  0.00    +0.142 HD
ENDBRANCH   1   5
BRANCH   1   7
ATOM      7  C   VAL A   1      13.735   4.074 -17.794  0.00  0.00    +0.224 C 
ATOM      8  O   VAL A   1      12.593   4.286 -18.203  0.00  0.00    -0.287 OA
ENDBRANCH   1   7
TORSDOF 3
REMARK  Name = ../refined-set-2016/2qbw/2qbw_pocket.pdb
REMARK  239 active torsions:
REMARK  status: ('A' for Active; 'I' for Inactive)
REMARK    1  A    between atoms: _1  and  _5
REMARK    2  A    between atoms: _5  and  _6
REMARK    3  A    between atoms: _5  and  _8
REMARK    4  A    between atoms: _8  and  _9
REMARK    5  A    between atoms: _12  and  _13
REMARK    6  A    between atoms: _18  and  _20
REMARK    7  A    between atoms: _20  and  _21
REMARK    8  A    between atoms: _20  and  _23
REMARK    9  A    between atoms: _23  and  _24
REMARK   10  A    between atoms: _24  and  _25
REMARK   11  A    between atoms: _28  and  _30
REMARK   12  A    between atoms: _30  and  _31
REMARK   13  A    between atoms: _30  and  _33
REMARK   14  A    between atoms: _33  and  _34
REMARK   15  A    between atoms: _37  and  _39
REMARK   16  A    between atoms: _39  and  _40
REMARK   17  A    between atoms: _42  and  _44
REMARK   18  A    between atoms: _44  and  _45
REMARK   19  A    between atoms: _44  and  _47
REMARK   20  A    between atoms: _47  and  _48
REMARK   21  A    between atoms: _54  and  _56
REMARK   22  A    between atoms: _56  and  _57
REMARK   23  A    between atoms: _56  and  _59
REMARK   24  A    between atoms: _59  and  _60
REMARK   25  A    between atoms: _62  and  _64
REMARK   26  A    between atoms: _64  and  _65
REMARK   27  A    between atoms: _64  and  _67
REMARK   28  A    between atoms: _67  and  _68
REMARK   29  A    between atoms: _71  and  _73
REMARK   30  A    between atoms: _73  and  _74
REMARK   31  A    between atoms: _73  and  _76
REMARK   32  A    between atoms: _76  and  _77
REMARK   33  A    between atoms: _79  and  _81
REMARK   34  A    between atoms: _81  and  _82
REMARK   35  A    between atoms: _84  and  _86
REMARK   36  A    between atoms: _86  and  _87
REMARK   37  A    between atoms: _89  and  _91
REMARK   38  A    between atoms: _91  and  _92
REMARK   39  A    between atoms: _94  and  _96
REMARK   40  A    between atoms: _96  and  _97
REMARK   41  A    between atoms: _96  and  _99
REMARK   42  A    between atoms: _99  and  _100
REMARK   43  A    between atoms: _100  and  _101
REMARK   44  A    between atoms: _101  and  _102
REMARK   45  A    between atoms: _111  and  _113
REMARK   46  A    between atoms: _113  and  _114
REMARK   47  A    between atoms: _116  and  _118
REMARK   48  A    between atoms: _118  and  _119
REMARK   49  A    between atoms: _118  and  _121
REMARK   50  A    between atoms: _121  and  _122
REMARK   51  A    between atoms: _128  and  _129
REMARK   52  A    between atoms: _134  and  _136
REMARK   53  A    between atoms: _136  and  _137
REMARK   54  A    between atoms: _136  and  _139
REMARK   55  A    between atoms: _139  and  _140
REMARK   56  A    between atoms: _146  and  _148
REMARK   57  A    between atoms: _148  and  _149
REMARK   58  A    between atoms: _148  and  _151
REMARK   59  A    between atoms: _151  and  _152
REMARK   60  A    between atoms: _155  and  _157
REMARK   61  A    between atoms: _157  and  _158
REMARK   62  A    between atoms: _157  and  _160
REMARK   63  A    between atoms: _160  and  _161
REMARK   64  A    between atoms: _167  and  _169
REMARK   65  A    between atoms: _169  and  _170
REMARK   66  A    between atoms: _169  and  _172
REMARK   67  A    between atoms: _175  and  _177
REMARK   68  A    between atoms: _177  and  _178
REMARK   69  A    between atoms: _177  and  _180
REMARK   70  A    between atoms: _180  and  _181
REMARK   71  A    between atoms: _184  and  _186
REMARK   72  A    between atoms: _186  and  _187
REMARK   73  A    between atoms: _186  and  _189
REMARK   74  A    between atoms: _189  and  _190
REMARK   75  A    between atoms: _190  and  _191
REMARK   76  A    between atoms: _191  and  _192
REMARK   77  A    between atoms: _201  and  _203
REMARK   78  A    between atoms: _203  and  _204
REMARK   79  A    between atoms: _203  and  _206
REMARK   80  A    between atoms: _209  and  _211
REMARK   81  A    between atoms: _211  and  _212
REMARK   82  A    between atoms: _211  and  _214
REMARK   83  A    between atoms: _214  and  _215
REMARK   84  A    between atoms: _215  and  _216
REMARK   85  A    between atoms: _222  and  _223
REMARK   86  A    between atoms: _229  and  _230
REMARK   87  A    between atoms: _235  and  _237
REMARK   88  A    between atoms: _237  and  _238
REMARK   89  A    between atoms: _241  and  _243
REMARK   90  A    between atoms: _243  and  _244
REMARK   91  A    between atoms: _243  and  _246
REMARK   92  A    between atoms: _246  and  _247
REMARK   93  A    between atoms: _250  and  _252
REMARK   94  A    between atoms: _252  and  _253
REMARK   95  A    between atoms: _252  and  _255
REMARK   96  A    between atoms: _255  and  _256
REMARK   97  A    between atoms: _259  and  _261
REMARK   98  A    between atoms: _261  and  _262
REMARK   99  A    between atoms: _261  and  _264
REMARK  100  A    between atoms: _264  and  _265
REMARK  101  A    between atoms: _271  and  _273
REMARK  102  A    between atoms: _273  and  _274
REMARK  103  A    between atoms: _273  and  _276
REMARK  104  A    between atoms: _276  and  _277
REMARK  105  A    between atoms: _282  and  _284
REMARK  106  A    between atoms: _284  and  _285
REMARK  107  A    between atoms: _287  and  _289
REMARK  108  A    between atoms: _289  and  _290
REMARK  109  A    between atoms: _293  and  _295
REMARK  110  A    between atoms: _295  and  _296
REMARK  111  A    between atoms: _295  and  _298
REMARK  112  A    between atoms: _301  and  _303
REMARK  113  A    between atoms: _303  and  _304
REMARK  114  A    between atoms: _303  and  _306
REMARK  115  A    between atoms: _306  and  _307
REMARK  116  A    between atoms: _309  and  _311
REMARK  117  A    between atoms: _311  and  _312
REMARK  118  A    between atoms: _311  and  _314
REMARK  119  A    between atoms: _314  and  _315
REMARK  120  A    between atoms: _318  and  _320
REMARK  121  A    between atoms: _320  and  _321
REMARK  122  A    between atoms: _320  and  _323
REMARK  123  A    between atoms: _323  and  _324
REMARK  124  A    between atoms: _327  and  _329
REMARK  125  A    between atoms: _329  and  _330
REMARK  126  A    between atoms: _329  and  _332
REMARK  127  A    between atoms: _332  and  _333
REMARK  128  A    between atoms: _333  and  _334
REMARK  129  A    between atoms: _334  and  _335
REMARK  130  A    between atoms: _335  and  _336
REMARK  131  A    between atoms: _340  and  _342
REMARK  132  A    between atoms: _342  and  _343
REMARK  133  A    between atoms: _342  and  _345
REMARK  134  A    between atoms: _345  and  _346
REMARK  135  A    between atoms: _349  and  _351
REMARK  136  A    between atoms: _351  and  _352
REMARK  137  A    between atoms: _351  and  _354
REMARK  138  A    between atoms: _354  and  _355
REMARK  139  A    between atoms: _361  and  _363
REMARK  140  A    between atoms: _363  and  _364
REMARK  141  A    between atoms: _363  and  _366
REMARK  142  A    between atoms: _369  and  _371
REMARK  143  A    between atoms: _371  and  _372
REMARK  144  A    between atoms: _371  and  _374
REMARK  145  A    between atoms: _374  and  _375
REMARK  146  A    between atoms: _378  and  _380
REMARK  147  A    between atoms: _380  and  _381
REMARK  148  A    between atoms: _380  and  _383
REMARK  149  A    between atoms: _386  and  _388
REMARK  150  A    between atoms: _388  and  _389
REMARK  151  A    between atoms: _388  and  _391
REMARK  152  A    between atoms: _391  and  _392
REMARK  153  A    between atoms: _392  and  _393
REMARK  154  A    between atoms: _393  and  _394
REMARK  155  A    between atoms: _394  and  _395
REMARK  156  A    between atoms: _399  and  _401
REMARK  157  A    between atoms: _401  and  _402
REMARK  158  A    between atoms: _401  and  _404
REMARK  159  A    between atoms: _404  and  _405
REMARK  160  A    between atoms: _408  and  _410
REMARK  161  A    between atoms: _410  and  _411
REMARK  162  A    between atoms: _410  and  _413
REMARK  163  A    between atoms: _413  and  _414
REMARK  164  A    between atoms: _419  and  _420
REMARK  165  A    between atoms: _422  and  _424
REMARK  166  A    between atoms: _424  and  _425
REMARK  167  A    between atoms: _424  and  _427
REMARK  168  A    between atoms: _427  and  _428
REMARK  169  A    between atoms: _433  and  _434
REMARK  170  A    between atoms: _436  and  _438
REMARK  171  A    between atoms: _438  and  _439
REMARK  172  A    between atoms: _441  and  _443
REMARK  173  A    between atoms: _443  and  _444
REMARK  174  A    between atoms: _443  and  _446
REMARK  175  A    between atoms: _449  and  _451
REMARK  176  A    between atoms: _451  and  _452
REMARK  177  A    between atoms: _451  and  _454
REMARK  178  A    between atoms: _454  and  _455
REMARK  179  A    between atoms: _457  and  _459
REMARK  180  A    between atoms: _459  and  _460
REMARK  181  A    between atoms: _459  and  _462
REMARK  182  A    between atoms: _462  and  _463
REMARK  183  A    between atoms: _468  and  _469
REMARK  184  A    between atoms: _471  and  _473
REMARK  185  A    between atoms: _473  and  _474
REMARK  186  A    between atoms: _473  and  _476
REMARK  187  A    between atoms: _476  and  _477
REMARK  188  A    between atoms: _482  and  _483
REMARK  189  A    between atoms: _485  and  _487
REMARK  190  A    between atoms: _487  and  _488
REMARK  191  A    between atoms: _487  and  _490
REMARK  192  A    between atoms: _490  and  _491
REMARK  193  A    between atoms: _494  and  _496
REMARK  194  A    between atoms: _496  and  _497
REMARK  195  A    between atoms: _496  and  _499
REMARK  196  A    between atoms: _503  and  _504
REMARK  197  A    between atoms: _509  and  _511
REMARK  198  A    between atoms: _511  and  _512
REMARK  199  A    between atoms: _511  and  _514
REMARK  200  A    between atoms: _514  and  _515
REMARK  201  A    between atoms: _520  and  _521
REMARK  202  A    between atoms: _523  and  _525
REMARK  203  A    between atoms: _525  and  _526
REMARK  204  A    between atoms: _525  and  _528
REMARK  205  A    between atoms: _528  and  _529
REMARK  206  A    between atoms: _534  and  _535
REMARK  207  A    between atoms: _537  and  _539
REMARK  208  A    between atoms: _539  and  _540
REMARK  209  A    between atoms: _539  and  _542
REMARK  210  A    between atoms: _542  and  _543
REMARK  211  A    between atoms: _545  and  _547
REMARK  212  A    between atoms: _547  and  _548
REMARK  213  A    between atoms: _547  and  _550
REMARK  214  A    between atoms: _550  and  _551
REMARK  215  A    between atoms: _554  and  _556
REMARK  216  A    between atoms: _556  and  _557
REMARK  217  A    between atoms: _556  and  _559
REMARK  218  A    between atoms: _559  and  _560
REMARK  219  A    between atoms: _565  and  _566
REMARK  220  A    between atoms: _568  and  _570
REMARK  221  A    between atoms: _570  and  _571
REMARK  222  A    between atoms: _570  and  _573
REMARK  223  A    between atoms: _573  and  _574
REMARK  224  A    between atoms: _579  and  _580
REMARK  225  A    between atoms: _582  and  _584
REMARK  226  A    between atoms: _584  and  _585
REMARK  227  A    between atoms: _587  and  _589
REMARK  228  A    between atoms: _589  and  _590
REMARK  229  A    between atoms: _589  and  _592
REMARK  230  A    between atoms: _592  and  _593
REMARK  231  A    between atoms: _595  and  _597
REMARK  232  A    between atoms: _597  and  _598
REMARK  233  A    between atoms: _597  and  _600
REMARK  234  A    between atoms: _600  and  _601
REMARK  235  A    between atoms: _606  and  _608
REMARK  236  A    between atoms: _608  and  _609
REMARK  237  A    between atoms: _608  and  _611
REMARK  238  A    between atoms: _611  and  _612
REMARK  239  A    between atoms: _617  and  _618
REMARK                            x       y       z     vdW  Elec       q    Type
REMARK                         _______ _______ _______ _____ _____    ______ ____
ROOT
ATOM      1  CA  LEU A   1      12.849   0.013 -20.660  0.00  0.00    +0.133 C 
ENDROOT
BRANCH   1   2
ATOM      2  N   LEU A   1      13.207   1.418 -20.536  0.00  0.00    -0.239 NA
ATOM      3  H   LEU A   1      12.540   2.136 -20.885  0.00  0.00    +0.142 HD
ENDBRANCH   1   2
BRANCH   1   4
ATOM      4  C   LEU A   1      12.768  -0.345 -22.127  0.00  0.00    +0.224 C 
ATOM      5  O   LEU A   1      12.301   0.465 -22.949  0.00  0.00    -0.287 OA
ENDBRANCH   1   4
BRANCH   1   6
ATOM      6  CB  LEU A   1      11.478  -0.225 -20.035  0.00  0.00    +0.025 C 
BRANCH   6   7
ATOM      7  CG  LEU A   1      11.317   0.029 -18.551  0.00  0.00    +0.002 C 
ATOM      8  CD2 LEU A   1      11.999  -1.058 -17.744  0.00  0.00    +0.000 C 
ATOM      9  CD1 LEU A   1       9.822   0.080 -18.209  0.00  0.00    +0.000 C 
ENDBRANCH   6   7
ENDBRANCH   1   6
TORSDOF 4
REMARK  Name = ../refined-set-2016/2qbw/2qbw_pocket.pdb
REMARK  239 active torsions:
REMARK  status: ('A' for Active; 'I' for Inactive)
REMARK    1  A    between atoms: _1  and  _5
REMARK    2  A    between atoms: _5  and  _6
REMARK    3  A    between atoms: _5  and  _8
REMARK    4  A    between atoms: _8  and  _9
REMARK    5  A    between atoms: _12  and  _13
REMARK    6  A    between atoms: _18  and  _20
REMARK    7  A    between atoms: _20  and  _21
REMARK    8  A    between atoms: _20  and  _23
REMARK    9  A    between atoms: _23  and  _24
REMARK   10  A    between atoms: _24  and  _25
REMARK   11  A    between atoms: _28  and  _30
REMARK   12  A    between atoms: _30  and  _31
REMARK   13  A    between atoms: _30  and  _33
REMARK   14  A    between atoms: _33  and  _34
REMARK   15  A    between atoms: _37  and  _39
REMARK   16  A    between atoms: _39  and  _40
REMARK   17  A    between atoms: _42  and  _44
REMARK   18  A    between atoms: _44  and  _45
REMARK   19  A    between atoms: _44  and  _47
REMARK   20  A    between atoms: _47  and  _48
REMARK   21  A    between atoms: _54  and  _56
REMARK   22  A    between atoms: _56  and  _57
REMARK   23  A    between atoms: _56  and  _59
REMARK   24  A    between atoms: _59  and  _60
REMARK   25  A    between atoms: _62  and  _64
REMARK   26  A    between atoms: _64  and  _65
REMARK   27  A    between atoms: _64  and  _67
REMARK   28  A    between atoms: _67  and  _68
REMARK   29  A    between atoms: _71  and  _73
REMARK   30  A    between atoms: _73  and  _74
REMARK   31  A    between atoms: _73  and  _76
REMARK   32  A    between atoms: _76  and  _77
REMARK   33  A    between atoms: _79  and  _81
REMARK   34  A    between atoms: _81  and  _82
REMARK   35  A    between atoms: _84  and  _86
REMARK   36  A    between atoms: _86  and  _87
REMARK   37  A    between atoms: _89  and  _91
REMARK   38  A    between atoms: _91  and  _92
REMARK   39  A    between atoms: _94  and  _96
REMARK   40  A    between atoms: _96  and  _97
REMARK   41  A    between atoms: _96  and  _99
REMARK   42  A    between atoms: _99  and  _100
REMARK   43  A    between atoms: _100  and  _101
REMARK   44  A    between atoms: _101  and  _102
REMARK   45  A    between atoms: _111  and  _113
REMARK   46  A    between atoms: _113  and  _114
REMARK   47  A    between atoms: _116  and  _118
REMARK   48  A    between atoms: _118  and  _119
REMARK   49  A    between atoms: _118  and  _121
REMARK   50  A    between atoms: _121  and  _122
REMARK   51  A    between atoms: _128  and  _129
REMARK   52  A    between atoms: _134  and  _136
REMARK   53  A    between atoms: _136  and  _137
REMARK   54  A    between atoms: _136  and  _139
REMARK   55  A    between atoms: _139  and  _140
REMARK   56  A    between atoms: _146  and  _148
REMARK   57  A    between atoms: _148  and  _149
REMARK   58  A    between atoms: _148  and  _151
REMARK   59  A    between atoms: _151  and  _152
REMARK   60  A    between atoms: _155  and  _157
REMARK   61  A    between atoms: _157  and  _158
REMARK   62  A    between atoms: _157  and  _160
REMARK   63  A    between atoms: _160  and  _161
REMARK   64  A    between atoms: _167  and  _169
REMARK   65  A    between atoms: _169  and  _170
REMARK   66  A    between atoms: _169  and  _172
REMARK   67  A    between atoms: _175  and  _177
REMARK   68  A    between atoms: _177  and  _178
REMARK   69  A    between atoms: _177  and  _180
REMARK   70  A    between atoms: _180  and  _181
REMARK   71  A    between atoms: _184  and  _186
REMARK   72  A    between atoms: _186  and  _187
REMARK   73  A    between atoms: _186  and  _189
REMARK   74  A    between atoms: _189  and  _190
REMARK   75  A    between atoms: _190  and  _191
REMARK   76  A    between atoms: _191  and  _192
REMARK   77  A    between atoms: _201  and  _203
REMARK   78  A    between atoms: _203  and  _204
REMARK   79  A    between atoms: _203  and  _206
REMARK   80  A    between atoms: _209  and  _211
REMARK   81  A    between atoms: _211  and  _212
REMARK   82  A    between atoms: _211  and  _214
REMARK   83  A    between atoms: _214  and  _215
REMARK   84  A    between atoms: _215  and  _216
REMARK   85  A    between atoms: _222  and  _223
REMARK   86  A    between atoms: _229  and  _230
REMARK   87  A    between atoms: _235  and  _237
REMARK   88  A    between atoms: _237  and  _238
REMARK   89  A    between atoms: _241  and  _243
REMARK   90  A    between atoms: _243  and  _244
REMARK   91  A    between atoms: _243  and  _246
REMARK   92  A    between atoms: _246  and  _247
REMARK   93  A    between atoms: _250  and  _252
REMARK   94  A    between atoms: _252  and  _253
REMARK   95  A    between atoms: _252  and  _255
REMARK   96  A    between atoms: _255  and  _256
REMARK   97  A    between atoms: _259  and  _261
REMARK   98  A    between atoms: _261  and  _262
REMARK   99  A    between atoms: _261  and  _264
REMARK  100  A    between atoms: _264  and  _265
REMARK  101  A    between atoms: _271  and  _273
REMARK  102  A    between atoms: _273  and  _274
REMARK  103  A    between atoms: _273  and  _276
REMARK  104  A    between atoms: _276  and  _277
REMARK  105  A    between atoms: _282  and  _284
REMARK  106  A    between atoms: _284  and  _285
REMARK  107  A    between atoms: _287  and  _289
REMARK  108  A    between atoms: _289  and  _290
REMARK  109  A    between atoms: _293  and  _295
REMARK  110  A    between atoms: _295  and  _296
REMARK  111  A    between atoms: _295  and  _298
REMARK  112  A    between atoms: _301  and  _303
REMARK  113  A    between atoms: _303  and  _304
REMARK  114  A    between atoms: _303  and  _306
REMARK  115  A    between atoms: _306  and  _307
REMARK  116  A    between atoms: _309  and  _311
REMARK  117  A    between atoms: _311  and  _312
REMARK  118  A    between atoms: _311  and  _314
REMARK  119  A    between atoms: _314  and  _315
REMARK  120  A    between atoms: _318  and  _320
REMARK  121  A    between atoms: _320  and  _321
REMARK  122  A    between atoms: _320  and  _323
REMARK  123  A    between atoms: _323  and  _324
REMARK  124  A    between atoms: _327  and  _329
REMARK  125  A    between atoms: _329  and  _330
REMARK  126  A    between atoms: _329  and  _332
REMARK  127  A    between atoms: _332  and  _333
REMARK  128  A    between atoms: _333  and  _334
REMARK  129  A    between atoms: _334  and  _335
REMARK  130  A    between atoms: _335  and  _336
REMARK  131  A    between atoms: _340  and  _342
REMARK  132  A    between atoms: _342  and  _343
REMARK  133  A    between atoms: _342  and  _345
REMARK  134  A    between atoms: _345  and  _346
REMARK  135  A    between atoms: _349  and  _351
REMARK  136  A    between atoms: _351  and  _352
REMARK  137  A    between atoms: _351  and  _354
REMARK  138  A    between atoms: _354  and  _355
REMARK  139  A    between atoms: _361  and  _363
REMARK  140  A    between atoms: _363  and  _364
REMARK  141  A    between atoms: _363  and  _366
REMARK  142  A    between atoms: _369  and  _371
REMARK  143  A    between atoms: _371  and  _372
REMARK  144  A    between atoms: _371  and  _374
REMARK  145  A    between atoms: _374  and  _375
REMARK  146  A    between atoms: _378  and  _380
REMARK  147  A    between atoms: _380  and  _381
REMARK  148  A    between atoms: _380  and  _383
REMARK  149  A    between atoms: _386  and  _388
REMARK  150  A    between atoms: _388  and  _389
REMARK  151  A    between atoms: _388  and  _391
REMARK  152  A    between atoms: _391  and  _392
REMARK  153  A    between atoms: _392  and  _393
REMARK  154  A    between atoms: _393  and  _394
REMARK  155  A    between atoms: _394  and  _395
REMARK  156  A    between atoms: _399  and  _401
REMARK  157  A    between atoms: _401  and  _402
REMARK  158  A    between atoms: _401  and  _404
REMARK  159  A    between atoms: _404  and  _405
REMARK  160  A    between atoms: _408  and  _410
REMARK  161  A    between atoms: _410  and  _411
REMARK  162  A    between atoms: _410  and  _413
REMARK  163  A    between atoms: _413  and  _414
REMARK  164  A    between atoms: _419  and  _420
REMARK  165  A    between atoms: _422  and  _424
REMARK  166  A    between atoms: _424  and  _425
REMARK  167  A    between atoms: _424  and  _427
REMARK  168  A    between atoms: _427  and  _428
REMARK  169  A    between atoms: _433  and  _434
REMARK  170  A    between atoms: _436  and  _438
REMARK  171  A    between atoms: _438  and  _439
REMARK  172  A    between atoms: _441  and  _443
REMARK  173  A    between atoms: _443  and  _444
REMARK  174  A    between atoms: _443  and  _446
REMARK  175  A    between atoms: _449  and  _451
REMARK  176  A    between atoms: _451  and  _452
REMARK  177  A    between atoms: _451  and  _454
REMARK  178  A    between atoms: _454  and  _455
REMARK  179  A    between atoms: _457  and  _459
REMARK  180  A    between atoms: _459  and  _460
REMARK  181  A    between atoms: _459  and  _462
REMARK  182  A    between atoms: _462  and  _463
REMARK  183  A    between atoms: _468  and  _469
REMARK  184  A    between atoms: _471  and  _473
REMARK  185  A    between atoms: _473  and  _474
REMARK  186  A    between atoms: _473  and  _476
REMARK  187  A    between atoms: _476  and  _477
REMARK  188  A    between atoms: _482  and  _483
REMARK  189  A    between atoms: _485  and  _487
REMARK  190  A    between atoms: _487  and  _488
REMARK  191  A    between atoms: _487  and  _490
REMARK  192  A    between atoms: _490  and  _491
REMARK  193  A    between atoms: _494  and  _496
REMARK  194  A    between atoms: _496  and  _497
REMARK  195  A    between atoms: _496  and  _499
REMARK  196  A    between atoms: _503  and  _504
REMARK  197  A    between atoms: _509  and  _511
REMARK  198  A    between atoms: _511  and  _512
REMARK  199  A    between atoms: _511  and  _514
REMARK  200  A    between atoms: _514  and  _515
REMARK  201  A    between atoms: _520  and  _521
REMARK  202  A    between atoms: _523  and  _525
REMARK  203  A    between atoms: _525  and  _526
REMARK  204  A    between atoms: _525  and  _528
REMARK  205  A    between atoms: _528  and  _529
REMARK  206  A    between atoms: _534  and  _535
REMARK  207  A    between atoms: _537  and  _539
REMARK  208  A    between atoms: _539  and  _540
REMARK  209  A    between atoms: _539  and  _542
REMARK  210  A    between atoms: _542  and  _543
REMARK  211  A    between atoms: _545  and  _547
REMARK  212  A    between atoms: _547  and  _548
REMARK  213  A    between atoms: _547  and  _550
REMARK  214  A    between atoms: _550  and  _551
REMARK  215  A    between atoms: _554  and  _556
REMARK  216  A    between atoms: _556  and  _557
REMARK  217  A    between atoms: _556  and  _559
REMARK  218  A    between atoms: _559  and  _560
REMARK  219  A    between atoms: _565  and  _566
REMARK  220  A    between atoms: _568  and  _570
REMARK  221  A    between atoms: _570  and  _571
REMARK  222  A    between atoms: _570  and  _573
REMARK  223  A    between atoms: _573  and  _574
REMARK  224  A    between atoms: _579  and  _580
REMARK  225  A    between atoms: _582  and  _584
REMARK  226  A    between atoms: _584  and  _585
REMARK  227  A    between atoms: _587  and  _589
REMARK  228  A    between atoms: _589  and  _590
REMARK  229  A    between atoms: _589  and  _592
REMARK  230  A    between atoms: _592  and  _593
REMARK  231  A    between atoms: _595  and  _597
REMARK  232  A    between atoms: _597  and  _598
REMARK  233  A    between atoms: _597  and  _600
REMARK  234  A    between atoms: _600  and  _601
REMARK  235  A    between atoms: _606  and  _608
REMARK  236  A    between atoms: _608  and  _609
REMARK  237  A    between atoms: _608  and  _611
REMARK  238  A    between atoms: _611  and  _612
REMARK  239  A    between atoms: _617  and  _618
REMARK                            x       y       z     vdW  Elec       q    Type
REMARK                         _______ _______ _______ _____ _____    ______ ____
ROOT
ATOM      1  CA  VAL A   1       9.191   5.906 -17.480  0.00  0.00    +0.133 C 
ENDROOT
BRANCH   1   2
ATOM      2  CB  VAL A   1       8.799   4.520 -16.898  0.00  0.00    +0.023 C 
ATOM      3  CG2 VAL A   1       7.746   4.693 -15.849  0.00  0.00    +0.002 C 
ATOM      4  CG1 VAL A   1       8.285   3.608 -18.012  0.00  0.00    +0.002 C 
ENDBRANCH   1   2
BRANCH   1   5
ATOM      5  N   VAL A   1      10.167   5.752 -18.535  0.00  0.00    -0.239 NA
ATOM      6  H   VAL A   1      11.011   5.172 -18.352  0.00  0.00    +0.142 HD
ENDBRANCH   1   5
BRANCH   1   7
ATOM      7  C   VAL A   1       9.832   6.730 -16.362  0.00  0.00    +0.224 C 
ATOM      8  O   VAL A   1      10.933   6.409 -15.912  0.00  0.00    -0.287 OA
ENDBRANCH   1   7
TORSDOF 3
REMARK  Name = ../refined-set-2016/2qbw/2qbw_pocket.pdb
REMARK  239 active torsions:
REMARK  status: ('A' for Active; 'I' for Inactive)
REMARK    1  A    between atoms: _1  and  _5
REMARK    2  A    between atoms: _5  and  _6
REMARK    3  A    between atoms: _5  and  _8
REMARK    4  A    between atoms: _8  and  _9
REMARK    5  A    between atoms: _12  and  _13
REMARK    6  A    between atoms: _18  and  _20
REMARK    7  A    between atoms: _20  and  _21
REMARK    8  A    between atoms: _20  and  _23
REMARK    9  A    between atoms: _23  and  _24
REMARK   10  A    between atoms: _24  and  _25
REMARK   11  A    between atoms: _28  and  _30
REMARK   12  A    between atoms: _30  and  _31
REMARK   13  A    between atoms: _30  and  _33
REMARK   14  A    between atoms: _33  and  _34
REMARK   15  A    between atoms: _37  and  _39
REMARK   16  A    between atoms: _39  and  _40
REMARK   17  A    between atoms: _42  and  _44
REMARK   18  A    between atoms: _44  and  _45
REMARK   19  A    between atoms: _44  and  _47
REMARK   20  A    between atoms: _47  and  _48
REMARK   21  A    between atoms: _54  and  _56
REMARK   22  A    between atoms: _56  and  _57
REMARK   23  A    between atoms: _56  and  _59
REMARK   24  A    between atoms: _59  and  _60
REMARK   25  A    between atoms: _62  and  _64
REMARK   26  A    between atoms: _64  and  _65
REMARK   27  A    between atoms: _64  and  _67
REMARK   28  A    between atoms: _67  and  _68
REMARK   29  A    between atoms: _71  and  _73
REMARK   30  A    between atoms: _73  and  _74
REMARK   31  A    between atoms: _73  and  _76
REMARK   32  A    between atoms: _76  and  _77
REMARK   33  A    between atoms: _79  and  _81
REMARK   34  A    between atoms: _81  and  _82
REMARK   35  A    between atoms: _84  and  _86
REMARK   36  A    between atoms: _86  and  _87
REMARK   37  A    between atoms: _89  and  _91
REMARK   38  A    between atoms: _91  and  _92
REMARK   39  A    between atoms: _94  and  _96
REMARK   40  A    between atoms: _96  and  _97
REMARK   41  A    between atoms: _96  and  _99
REMARK   42  A    between atoms: _99  and  _100
REMARK   43  A    between atoms: _100  and  _101
REMARK   44  A    between atoms: _101  and  _102
REMARK   45  A    between atoms: _111  and  _113
REMARK   46  A    between atoms: _113  and  _114
REMARK   47  A    between atoms: _116  and  _118
REMARK   48  A    between atoms: _118  and  _119
REMARK   49  A    between atoms: _118  and  _121
REMARK   50  A    between atoms: _121  and  _122
REMARK   51  A    between atoms: _128  and  _129
REMARK   52  A    between atoms: _134  and  _136
REMARK   53  A    between atoms: _136  and  _137
REMARK   54  A    between atoms: _136  and  _139
REMARK   55  A    between atoms: _139  and  _140
REMARK   56  A    between atoms: _146  and  _148
REMARK   57  A    between atoms: _148  and  _149
REMARK   58  A    between atoms: _148  and  _151
REMARK   59  A    between atoms: _151  and  _152
REMARK   60  A    between atoms: _155  and  _157
REMARK   61  A    between atoms: _157  and  _158
REMARK   62  A    between atoms: _157  and  _160
REMARK   63  A    between atoms: _160  and  _161
REMARK   64  A    between atoms: _167  and  _169
REMARK   65  A    between atoms: _169  and  _170
REMARK   66  A    between atoms: _169  and  _172
REMARK   67  A    between atoms: _175  and  _177
REMARK   68  A    between atoms: _177  and  _178
REMARK   69  A    between atoms: _177  and  _180
REMARK   70  A    between atoms: _180  and  _181
REMARK   71  A    between atoms: _184  and  _186
REMARK   72  A    between atoms: _186  and  _187
REMARK   73  A    between atoms: _186  and  _189
REMARK   74  A    between atoms: _189  and  _190
REMARK   75  A    between atoms: _190  and  _191
REMARK   76  A    between atoms: _191  and  _192
REMARK   77  A    between atoms: _201  and  _203
REMARK   78  A    between atoms: _203  and  _204
REMARK   79  A    between atoms: _203  and  _206
REMARK   80  A    between atoms: _209  and  _211
REMARK   81  A    between atoms: _211  and  _212
REMARK   82  A    between atoms: _211  and  _214
REMARK   83  A    between atoms: _214  and  _215
REMARK   84  A    between atoms: _215  and  _216
REMARK   85  A    between atoms: _222  and  _223
REMARK   86  A    between atoms: _229  and  _230
REMARK   87  A    between atoms: _235  and  _237
REMARK   88  A    between atoms: _237  and  _238
REMARK   89  A    between atoms: _241  and  _243
REMARK   90  A    between atoms: _243  and  _244
REMARK   91  A    between atoms: _243  and  _246
REMARK   92  A    between atoms: _246  and  _247
REMARK   93  A    between atoms: _250  and  _252
REMARK   94  A    between atoms: _252  and  _253
REMARK   95  A    between atoms: _252  and  _255
REMARK   96  A    between atoms: _255  and  _256
REMARK   97  A    between atoms: _259  and  _261
REMARK   98  A    between atoms: _261  and  _262
REMARK   99  A    between atoms: _261  and  _264
REMARK  100  A    between atoms: _264  and  _265
REMARK  101  A    between atoms: _271  and  _273
REMARK  102  A    between atoms: _273  and  _274
REMARK  103  A    between atoms: _273  and  _276
REMARK  104  A    between atoms: _276  and  _277
REMARK  105  A    between atoms: _282  and  _284
REMARK  106  A    between atoms: _284  and  _285
REMARK  107  A    between atoms: _287  and  _289
REMARK  108  A    between atoms: _289  and  _290
REMARK  109  A    between atoms: _293  and  _295
REMARK  110  A    between atoms: _295  and  _296
REMARK  111  A    between atoms: _295  and  _298
REMARK  112  A    between atoms: _301  and  _303
REMARK  113  A    between atoms: _303  and  _304
REMARK  114  A    between atoms: _303  and  _306
REMARK  115  A    between atoms: _306  and  _307
REMARK  116  A    between atoms: _309  and  _311
REMARK  117  A    between atoms: _311  and  _312
REMARK  118  A    between atoms: _311  and  _314
REMARK  119  A    between atoms: _314  and  _315
REMARK  120  A    between atoms: _318  and  _320
REMARK  121  A    between atoms: _320  and  _321
REMARK  122  A    between atoms: _320  and  _323
REMARK  123  A    between atoms: _323  and  _324
REMARK  124  A    between atoms: _327  and  _329
REMARK  125  A    between atoms: _329  and  _330
REMARK  126  A    between atoms: _329  and  _332
REMARK  127  A    between atoms: _332  and  _333
REMARK  128  A    between atoms: _333  and  _334
REMARK  129  A    between atoms: _334  and  _335
REMARK  130  A    between atoms: _335  and  _336
REMARK  131  A    between atoms: _340  and  _342
REMARK  132  A    between atoms: _342  and  _343
REMARK  133  A    between atoms: _342  and  _345
REMARK  134  A    between atoms: _345  and  _346
REMARK  135  A    between atoms: _349  and  _351
REMARK  136  A    between atoms: _351  and  _352
REMARK  137  A    between atoms: _351  and  _354
REMARK  138  A    between atoms: _354  and  _355
REMARK  139  A    between atoms: _361  and  _363
REMARK  140  A    between atoms: _363  and  _364
REMARK  141  A    between atoms: _363  and  _366
REMARK  142  A    between atoms: _369  and  _371
REMARK  143  A    between atoms: _371  and  _372
REMARK  144  A    between atoms: _371  and  _374
REMARK  145  A    between atoms: _374  and  _375
REMARK  146  A    between atoms: _378  and  _380
REMARK  147  A    between atoms: _380  and  _381
REMARK  148  A    between atoms: _380  and  _383
REMARK  149  A    between atoms: _386  and  _388
REMARK  150  A    between atoms: _388  and  _389
REMARK  151  A    between atoms: _388  and  _391
REMARK  152  A    between atoms: _391  and  _392
REMARK  153  A    between atoms: _392  and  _393
REMARK  154  A    between atoms: _393  and  _394
REMARK  155  A    between atoms: _394  and  _395
REMARK  156  A    between atoms: _399  and  _401
REMARK  157  A    between atoms: _401  and  _402
REMARK  158  A    between atoms: _401  and  _404
REMARK  159  A    between atoms: _404  and  _405
REMARK  160  A    between atoms: _408  and  _410
REMARK  161  A    between atoms: _410  and  _411
REMARK  162  A    between atoms: _410  and  _413
REMARK  163  A    between atoms: _413  and  _414
REMARK  164  A    between atoms: _419  and  _420
REMARK  165  A    between atoms: _422  and  _424
REMARK  166  A    between atoms: _424  and  _425
REMARK  167  A    between atoms: _424  and  _427
REMARK  168  A    between atoms: _427  and  _428
REMARK  169  A    between atoms: _433  and  _434
REMARK  170  A    between atoms: _436  and  _438
REMARK  171  A    between atoms: _438  and  _439
REMARK  172  A    between atoms: _441  and  _443
REMARK  173  A    between atoms: _443  and  _444
REMARK  174  A    between atoms: _443  and  _446
REMARK  175  A    between atoms: _449  and  _451
REMARK  176  A    between atoms: _451  and  _452
REMARK  177  A    between atoms: _451  and  _454
REMARK  178  A    between atoms: _454  and  _455
REMARK  179  A    between atoms: _457  and  _459
REMARK  180  A    between atoms: _459  and  _460
REMARK  181  A    between atoms: _459  and  _462
REMARK  182  A    between atoms: _462  and  _463
REMARK  183  A    between atoms: _468  and  _469
REMARK  184  A    between atoms: _471  and  _473
REMARK  185  A    between atoms: _473  and  _474
REMARK  186  A    between atoms: _473  and  _476
REMARK  187  A    between atoms: _476  and  _477
REMARK  188  A    between atoms: _482  and  _483
REMARK  189  A    between atoms: _485  and  _487
REMARK  190  A    between atoms: _487  and  _488
REMARK  191  A    between atoms: _487  and  _490
REMARK  192  A    between atoms: _490  and  _491
REMARK  193  A    between atoms: _494  and  _496
REMARK  194  A    between atoms: _496  and  _497
REMARK  195  A    between atoms: _496  and  _499
REMARK  196  A    between atoms: _503  and  _504
REMARK  197  A    between atoms: _509  and  _511
REMARK  198  A    between atoms: _511  and  _512
REMARK  199  A    between atoms: _511  and  _514
REMARK  200  A    between atoms: _514  and  _515
REMARK  201  A    between atoms: _520  and  _521
REMARK  202  A    between atoms: _523  and  _525
REMARK  203  A    between atoms: _525  and  _526
REMARK  204  A    between atoms: _525  and  _528
REMARK  205  A    between atoms: _528  and  _529
REMARK  206  A    between atoms: _534  and  _535
REMARK  207  A    between atoms: _537  and  _539
REMARK  208  A    between atoms: _539  and  _540
REMARK  209  A    between atoms: _539  and  _542
REMARK  210  A    between atoms: _542  and  _543
REMARK  211  A    between atoms: _545  and  _547
REMARK  212  A    between atoms: _547  and  _548
REMARK  213  A    between atoms: _547  and  _550
REMARK  214  A    between atoms: _550  and  _551
REMARK  215  A    between atoms: _554  and  _556
REMARK  216  A    between atoms: _556  and  _557
REMARK  217  A    between atoms: _556  and  _559
REMARK  218  A    between atoms: _559  and  _560
REMARK  219  A    between atoms: _565  and  _566
REMARK  220  A    between atoms: _568  and  _570
REMARK  221  A    between atoms: _570  and  _571
REMARK  222  A    between atoms: _570  and  _573
REMARK  223  A    between atoms: _573  and  _574
REMARK  224  A    between atoms: _579  and  _580
REMARK  225  A    between atoms: _582  and  _584
REMARK  226  A    between atoms: _584  and  _585
REMARK  227  A    between atoms: _587  and  _589
REMARK  228  A    between atoms: _589  and  _590
REMARK  229  A    between atoms: _589  and  _592
REMARK  230  A    between atoms: _592  and  _593
REMARK  231  A    between atoms: _595  and  _597
REMARK  232  A    between atoms: _597  and  _598
REMARK  233  A    between atoms: _597  and  _600
REMARK  234  A    between atoms: _600  and  _601
REMARK  235  A    between atoms: _606  and  _608
REMARK  236  A    between atoms: _608  and  _609
REMARK  237  A    between atoms: _608  and  _611
REMARK  238  A    between atoms: _611  and  _612
REMARK  239  A    between atoms: _617  and  _618
REMARK                            x       y       z     vdW  Elec       q    Type
REMARK                         _______ _______ _______ _____ _____    ______ ____
ROOT
ATOM      1  CA  LYS A   1       9.513   7.380 -11.305  0.00  0.00    +0.145 C 
ENDROOT
BRANCH   1   2
ATOM      2  C   LYS A   1       8.735   8.468 -10.629  0.00  0.00    +0.238 C 
ATOM      3  N   ASP A   2       7.575   8.048 -10.160  0.00  0.00    -0.298 N 
ATOM      4  H   ASP A   2       7.044   7.338 -10.704  0.00  0.00    +0.150 HD
ATOM      5  O   LYS A   1       9.124   9.652 -10.653  0.00  0.00    -0.274 OA
BRANCH   3   6
ATOM      6  CA  ASP A   2       7.022   8.526  -8.943  0.00  0.00    +0.148 C 
BRANCH   6   7
ATOM      7  C   ASP A   2       5.708   7.922  -8.520  0.00  0.00    +0.227 C 
ATOM      8  O   ASP A   2       5.644   7.456  -7.386  0.00  0.00    -0.286 OA
ENDBRANCH   6   7
BRANCH   6   9
ATOM      9  CB  ASP A   2       6.904  10.015  -8.871  0.00  0.00    +0.142 C 
BRANCH   9  10
ATOM     10  CG  ASP A   2       7.097  10.466  -7.482  0.00  0.00    +0.367 C 
ATOM     11  OD2 ASP A   2       6.097  10.815  -6.838  0.00  0.00    -0.246 OA
ATOM     12  OD1 ASP A   2       8.245  10.328  -6.996  0.00  0.00    -0.246 OA
ENDBRANCH   9  10
ENDBRANCH   6   9
ENDBRANCH   3   6
ENDBRANCH   1   2
BRANCH   1  13
ATOM     13  N   LYS A   1       9.981   7.834 -12.605  0.00  0.00    -0.238 NA
ATOM     14  H   LYS A   1      11.000   7.846 -12.811  0.00  0.00    +0.142 HD
ENDBRANCH   1  13
BRANCH   1  15
ATOM     15  CB  LYS A   1      10.654   6.978 -10.383  0.00  0.00    +0.026 C 
BRANCH  15  16
ATOM     16  CG  LYS A   1      11.260   5.646 -10.759  0.00  0.00    -0.000 C 
BRANCH  16  17
ATOM     17  CD  LYS A   1      12.184   5.087  -9.685  0.00  0.00    -0.024 C 
BRANCH  17  18
ATOM     18  CE  LYS A   1      12.527   3.627 -10.024  0.00  0.00    -0.086 C 
BRANCH  18  19
ATOM     19  NZ  LYS A   1      13.430   3.010  -8.989  0.00  0.00    +0.380 N 
ATOM     20  HZ1 LYS A   1      12.957   3.028  -8.063  0.00  0.00    -0.089 HD
ATOM     21  HZ2 LYS A   1      14.317   3.551  -8.938  0.00  0.00    -0.089 HD
ATOM     22  HZ3 LYS A   1      13.638   2.026  -9.254  0.00  0.00    -0.089 HD
ENDBRANCH  18  19
ENDBRANCH  17  18
ENDBRANCH  16  17
ENDBRANCH  15  16
ENDBRANCH   1  15
TORSDOF 11
REMARK  Name = ../refined-set-2016/2qbw/2qbw_pocket.pdb
REMARK  239 active torsions:
REMARK  status: ('A' for Active; 'I' for Inactive)
REMARK    1  A    between atoms: _1  and  _5
REMARK    2  A    between atoms: _5  and  _6
REMARK    3  A    between atoms: _5  and  _8
REMARK    4  A    between atoms: _8  and  _9
REMARK    5  A    between atoms: _12  and  _13
REMARK    6  A    between atoms: _18  and  _20
REMARK    7  A    between atoms: _20  and  _21
REMARK    8  A    between atoms: _20  and  _23
REMARK    9  A    between atoms: _23  and  _24
REMARK   10  A    between atoms: _24  and  _25
REMARK   11  A    between atoms: _28  and  _30
REMARK   12  A    between atoms: _30  and  _31
REMARK   13  A    between atoms: _30  and  _33
REMARK   14  A    between atoms: _33  and  _34
REMARK   15  A    between atoms: _37  and  _39
REMARK   16  A    between atoms: _39  and  _40
REMARK   17  A    between atoms: _42  and  _44
REMARK   18  A    between atoms: _44  and  _45
REMARK   19  A    between atoms: _44  and  _47
REMARK   20  A    between atoms: _47  and  _48
REMARK   21  A    between atoms: _54  and  _56
REMARK   22  A    between atoms: _56  and  _57
REMARK   23  A    between atoms: _56  and  _59
REMARK   24  A    between atoms: _59  and  _60
REMARK   25  A    between atoms: _62  and  _64
REMARK   26  A    between atoms: _64  and  _65
REMARK   27  A    between atoms: _64  and  _67
REMARK   28  A    between atoms: _67  and  _68
REMARK   29  A    between atoms: _71  and  _73
REMARK   30  A    between atoms: _73  and  _74
REMARK   31  A    between atoms: _73  and  _76
REMARK   32  A    between atoms: _76  and  _77
REMARK   33  A    between atoms: _79  and  _81
REMARK   34  A    between atoms: _81  and  _82
REMARK   35  A    between atoms: _84  and  _86
REMARK   36  A    between atoms: _86  and  _87
REMARK   37  A    between atoms: _89  and  _91
REMARK   38  A    between atoms: _91  and  _92
REMARK   39  A    between atoms: _94  and  _96
REMARK   40  A    between atoms: _96  and  _97
REMARK   41  A    between atoms: _96  and  _99
REMARK   42  A    between atoms: _99  and  _100
REMARK   43  A    between atoms: _100  and  _101
REMARK   44  A    between atoms: _101  and  _102
REMARK   45  A    between atoms: _111  and  _113
REMARK   46  A    between atoms: _113  and  _114
REMARK   47  A    between atoms: _116  and  _118
REMARK   48  A    between atoms: _118  and  _119
REMARK   49  A    between atoms: _118  and  _121
REMARK   50  A    between atoms: _121  and  _122
REMARK   51  A    between atoms: _128  and  _129
REMARK   52  A    between atoms: _134  and  _136
REMARK   53  A    between atoms: _136  and  _137
REMARK   54  A    between atoms: _136  and  _139
REMARK   55  A    between atoms: _139  and  _140
REMARK   56  A    between atoms: _146  and  _148
REMARK   57  A    between atoms: _148  and  _149
REMARK   58  A    between atoms: _148  and  _151
REMARK   59  A    between atoms: _151  and  _152
REMARK   60  A    between atoms: _155  and  _157
REMARK   61  A    between atoms: _157  and  _158
REMARK   62  A    between atoms: _157  and  _160
REMARK   63  A    between atoms: _160  and  _161
REMARK   64  A    between atoms: _167  and  _169
REMARK   65  A    between atoms: _169  and  _170
REMARK   66  A    between atoms: _169  and  _172
REMARK   67  A    between atoms: _175  and  _177
REMARK   68  A    between atoms: _177  and  _178
REMARK   69  A    between atoms: _177  and  _180
REMARK   70  A    between atoms: _180  and  _181
REMARK   71  A    between atoms: _184  and  _186
REMARK   72  A    between atoms: _186  and  _187
REMARK   73  A    between atoms: _186  and  _189
REMARK   74  A    between atoms: _189  and  _190
REMARK   75  A    between atoms: _190  and  _191
REMARK   76  A    between atoms: _191  and  _192
REMARK   77  A    between atoms: _201  and  _203
REMARK   78  A    between atoms: _203  and  _204
REMARK   79  A    between atoms: _203  and  _206
REMARK   80  A    between atoms: _209  and  _211
REMARK   81  A    between atoms: _211  and  _212
REMARK   82  A    between atoms: _211  and  _214
REMARK   83  A    between atoms: _214  and  _215
REMARK   84  A    between atoms: _215  and  _216
REMARK   85  A    between atoms: _222  and  _223
REMARK   86  A    between atoms: _229  and  _230
REMARK   87  A    between atoms: _235  and  _237
REMARK   88  A    between atoms: _237  and  _238
REMARK   89  A    between atoms: _241  and  _243
REMARK   90  A    between atoms: _243  and  _244
REMARK   91  A    between atoms: _243  and  _246
REMARK   92  A    between atoms: _246  and  _247
REMARK   93  A    between atoms: _250  and  _252
REMARK   94  A    between atoms: _252  and  _253
REMARK   95  A    between atoms: _252  and  _255
REMARK   96  A    between atoms: _255  and  _256
REMARK   97  A    between atoms: _259  and  _261
REMARK   98  A    between atoms: _261  and  _262
REMARK   99  A    between atoms: _261  and  _264
REMARK  100  A    between atoms: _264  and  _265
REMARK  101  A    between atoms: _271  and  _273
REMARK  102  A    between atoms: _273  and  _274
REMARK  103  A    between atoms: _273  and  _276
REMARK  104  A    between atoms: _276  and  _277
REMARK  105  A    between atoms: _282  and  _284
REMARK  106  A    between atoms: _284  and  _285
REMARK  107  A    between atoms: _287  and  _289
REMARK  108  A    between atoms: _289  and  _290
REMARK  109  A    between atoms: _293  and  _295
REMARK  110  A    between atoms: _295  and  _296
REMARK  111  A    between atoms: _295  and  _298
REMARK  112  A    between atoms: _301  and  _303
REMARK  113  A    between atoms: _303  and  _304
REMARK  114  A    between atoms: _303  and  _306
REMARK  115  A    between atoms: _306  and  _307
REMARK  116  A    between atoms: _309  and  _311
REMARK  117  A    between atoms: _311  and  _312
REMARK  118  A    between atoms: _311  and  _314
REMARK  119  A    between atoms: _314  and  _315
REMARK  120  A    between atoms: _318  and  _320
REMARK  121  A    between atoms: _320  and  _321
REMARK  122  A    between atoms: _320  and  _323
REMARK  123  A    between atoms: _323  and  _324
REMARK  124  A    between atoms: _327  and  _329
REMARK  125  A    between atoms: _329  and  _330
REMARK  126  A    between atoms: _329  and  _332
REMARK  127  A    between atoms: _332  and  _333
REMARK  128  A    between atoms: _333  and  _334
REMARK  129  A    between atoms: _334  and  _335
REMARK  130  A    between atoms: _335  and  _336
REMARK  131  A    between atoms: _340  and  _342
REMARK  132  A    between atoms: _342  and  _343
REMARK  133  A    between atoms: _342  and  _345
REMARK  134  A    between atoms: _345  and  _346
REMARK  135  A    between atoms: _349  and  _351
REMARK  136  A    between atoms: _351  and  _352
REMARK  137  A    between atoms: _351  and  _354
REMARK  138  A    between atoms: _354  and  _355
REMARK  139  A    between atoms: _361  and  _363
REMARK  140  A    between atoms: _363  and  _364
REMARK  141  A    between atoms: _363  and  _366
REMARK  142  A    between atoms: _369  and  _371
REMARK  143  A    between atoms: _371  and  _372
REMARK  144  A    between atoms: _371  and  _374
REMARK  145  A    between atoms: _374  and  _375
REMARK  146  A    between atoms: _378  and  _380
REMARK  147  A    between atoms: _380  and  _381
REMARK  148  A    between atoms: _380  and  _383
REMARK  149  A    between atoms: _386  and  _388
REMARK  150  A    between atoms: _388  and  _389
REMARK  151  A    between atoms: _388  and  _391
REMARK  152  A    between atoms: _391  and  _392
REMARK  153  A    between atoms: _392  and  _393
REMARK  154  A    between atoms: _393  and  _394
REMARK  155  A    between atoms: _394  and  _395
REMARK  156  A    between atoms: _399  and  _401
REMARK  157  A    between atoms: _401  and  _402
REMARK  158  A    between atoms: _401  and  _404
REMARK  159  A    between atoms: _404  and  _405
REMARK  160  A    between atoms: _408  and  _410
REMARK  161  A    between atoms: _410  and  _411
REMARK  162  A    between atoms: _410  and  _413
REMARK  163  A    between atoms: _413  and  _414
REMARK  164  A    between atoms: _419  and  _420
REMARK  165  A    between atoms: _422  and  _424
REMARK  166  A    between atoms: _424  and  _425
REMARK  167  A    between atoms: _424  and  _427
REMARK  168  A    between atoms: _427  and  _428
REMARK  169  A    between atoms: _433  and  _434
REMARK  170  A    between atoms: _436  and  _438
REMARK  171  A    between atoms: _438  and  _439
REMARK  172  A    between atoms: _441  and  _443
REMARK  173  A    between atoms: _443  and  _444
REMARK  174  A    between atoms: _443  and  _446
REMARK  175  A    between atoms: _449  and  _451
REMARK  176  A    between atoms: _451  and  _452
REMARK  177  A    between atoms: _451  and  _454
REMARK  178  A    between atoms: _454  and  _455
REMARK  179  A    between atoms: _457  and  _459
REMARK  180  A    between atoms: _459  and  _460
REMARK  181  A    between atoms: _459  and  _462
REMARK  182  A    between atoms: _462  and  _463
REMARK  183  A    between atoms: _468  and  _469
REMARK  184  A    between atoms: _471  and  _473
REMARK  185  A    between atoms: _473  and  _474
REMARK  186  A    between atoms: _473  and  _476
REMARK  187  A    between atoms: _476  and  _477
REMARK  188  A    between atoms: _482  and  _483
REMARK  189  A    between atoms: _485  and  _487
REMARK  190  A    between atoms: _487  and  _488
REMARK  191  A    between atoms: _487  and  _490
REMARK  192  A    between atoms: _490  and  _491
REMARK  193  A    between atoms: _494  and  _496
REMARK  194  A    between atoms: _496  and  _497
REMARK  195  A    between atoms: _496  and  _499
REMARK  196  A    between atoms: _503  and  _504
REMARK  197  A    between atoms: _509  and  _511
REMARK  198  A    between atoms: _511  and  _512
REMARK  199  A    between atoms: _511  and  _514
REMARK  200  A    between atoms: _514  and  _515
REMARK  201  A    between atoms: _520  and  _521
REMARK  202  A    between atoms: _523  and  _525
REMARK  203  A    between atoms: _525  and  _526
REMARK  204  A    between atoms: _525  and  _528
REMARK  205  A    between atoms: _528  and  _529
REMARK  206  A    between atoms: _534  and  _535
REMARK  207  A    between atoms: _537  and  _539
REMARK  208  A    between atoms: _539  and  _540
REMARK  209  A    between atoms: _539  and  _542
REMARK  210  A    between atoms: _542  and  _543
REMARK  211  A    between atoms: _545  and  _547
REMARK  212  A    between atoms: _547  and  _548
REMARK  213  A    between atoms: _547  and  _550
REMARK  214  A    between atoms: _550  and  _551
REMARK  215  A    between atoms: _554  and  _556
REMARK  216  A    between atoms: _556  and  _557
REMARK  217  A    between atoms: _556  and  _559
REMARK  218  A    between atoms: _559  and  _560
REMARK  219  A    between atoms: _565  and  _566
REMARK  220  A    between atoms: _568  and  _570
REMARK  221  A    between atoms: _570  and  _571
REMARK  222  A    between atoms: _570  and  _573
REMARK  223  A    between atoms: _573  and  _574
REMARK  224  A    between atoms: _579  and  _580
REMARK  225  A    between atoms: _582  and  _584
REMARK  226  A    between atoms: _584  and  _585
REMARK  227  A    between atoms: _587  and  _589
REMARK  228  A    between atoms: _589  and  _590
REMARK  229  A    between atoms: _589  and  _592
REMARK  230  A    between atoms: _592  and  _593
REMARK  231  A    between atoms: _595  and  _597
REMARK  232  A    between atoms: _597  and  _598
REMARK  233  A    between atoms: _597  and  _600
REMARK  234  A    between atoms: _600  and  _601
REMARK  235  A    between atoms: _606  and  _608
REMARK  236  A    between atoms: _608  and  _609
REMARK  237  A    between atoms: _608  and  _611
REMARK  238  A    between atoms: _611  and  _612
REMARK  239  A    between atoms: _617  and  _618
REMARK                            x       y       z     vdW  Elec       q    Type
REMARK                         _______ _______ _______ _____ _____    ______ ____
ROOT
ATOM      1  CA  VAL A   4       0.053  -4.123  -3.227  0.00  0.00    +0.149 C 
ENDROOT
BRANCH   1   4
ATOM      2  C   GLY A   3       1.029  -2.179  -4.363  0.00  0.00    +0.243 C 
ATOM      3  O   GLY A   3       2.058  -2.189  -3.658  0.00  0.00    -0.273 OA
ATOM      4  N   VAL A   4       0.049  -3.086  -4.245  0.00  0.00    -0.297 N 
ATOM      5  H   VAL A   4      -0.749  -3.046  -4.911  0.00  0.00    +0.150 HD
BRANCH   2   6
ATOM      6  CA  GLY A   3       0.826  -1.071  -5.386  0.00  0.00    +0.176 C 
BRANCH   6   9
ATOM      7  C   TYR A   2      -1.532  -0.650  -5.852  0.00  0.00    +0.241 C 
ATOM      8  O   TYR A   2      -1.743  -0.147  -4.751  0.00  0.00    -0.273 OA
ATOM      9  N   GLY A   3      -0.358  -1.157  -6.211  0.00  0.00    -0.295 N 
ATOM     10  H   GLY A   3      -0.287  -1.639  -7.130  0.00  0.00    +0.150 HD
BRANCH   7  11
ATOM     11  CA  TYR A   2      -2.625  -0.779  -6.876  0.00  0.00    +0.153 C 
BRANCH  11  13
ATOM     12  C   TYR A   1      -4.874  -1.644  -6.493  0.00  0.00    +0.239 C 
ATOM     13  N   TYR A   2      -3.912  -0.779  -6.189  0.00  0.00    -0.297 N 
ATOM     14  H   TYR A   2      -4.082  -0.080  -5.438  0.00  0.00    +0.150 HD
ATOM     15  O   TYR A   1      -4.734  -2.488  -7.346  0.00  0.00    -0.274 OA
BRANCH  12  16
ATOM     16  CA  TYR A   1      -6.188  -1.568  -5.691  0.00  0.00    +0.149 C 
BRANCH  16  17
ATOM     17  N   TYR A   1      -6.323  -0.365  -4.828  0.00  0.00    -0.238 NA
ATOM     18  H   TYR A   1      -6.726   0.508  -5.224  0.00  0.00    +0.142 HD
ENDBRANCH  16  17
BRANCH  16  19
ATOM     19  CB  TYR A   1      -7.392  -1.680  -6.623  0.00  0.00    +0.053 C 
BRANCH  19  20
ATOM     20  CG  TYR A   1      -8.689  -1.844  -5.866  0.00  0.00    -0.020 A 
ATOM     21  CD2 TYR A   1      -8.871  -2.919  -4.994  0.00  0.00    -0.001 A 
ATOM     22  CE2 TYR A   1     -10.062  -3.064  -4.260  0.00  0.00    +0.036 A 
ATOM     23  CZ  TYR A   1     -11.081  -2.138  -4.421  0.00  0.00    +0.134 A 
ATOM     24  CE1 TYR A   1     -10.925  -1.080  -5.285  0.00  0.00    +0.036 A 
ATOM     25  CD1 TYR A   1      -9.723  -0.928  -5.999  0.00  0.00    -0.001 A 
BRANCH  23  26
ATOM     26  OH  TYR A   1     -12.247  -2.299  -3.698  0.00  0.00    -0.506 OA
ATOM     27  HH  TYR A   1     -12.874  -1.566  -3.918  0.00  0.00    +0.292 HD
ENDBRANCH  23  26
ENDBRANCH  19  20
ENDBRANCH  16  19
ENDBRANCH  12  16
ENDBRANCH  11  13
BRANCH  11  28
ATOM     28  CB  TYR A   2      -2.549   0.368  -7.905  0.00  0.00    +0.055 C 
BRANCH  28  29
ATOM     29  CG  TYR A   2      -3.753   0.411  -8.771  0.00  0.00    -0.020 A 
ATOM     30  CD2 TYR A   2      -4.792   1.288  -8.485  0.00  0.00    -0.001 A 
ATOM     31  CE2 TYR A   2      -5.935   1.305  -9.259  0.00  0.00    +0.036 A 
ATOM     32  CZ  TYR A   2      -6.070   0.441 -10.299  0.00  0.00    +0.134 A 
ATOM     33  CE1 TYR A   2      -5.086  -0.472 -10.596  0.00  0.00    +0.036 A 
ATOM     34  CD1 TYR A   2      -3.921  -0.485  -9.809  0.00  0.00    -0.001 A 
BRANCH  32  35
ATOM     35  OH  TYR A   2      -7.235   0.465 -11.033  0.00  0.00    -0.506 OA
ATOM     36  HH  TYR A   2      -7.022   0.645 -11.983  0.00  0.00    +0.292 HD
ENDBRANCH  32  35
ENDBRANCH  28  29
ENDBRANCH  11  28
ENDBRANCH   7  11
ENDBRANCH   6   9
ENDBRANCH   2   6
ENDBRANCH   1   4
BRANCH   1  37
ATOM     37  C   VAL A   4      -0.057  -5.484  -3.877  0.00  0.00    +0.241 C 
ATOM     38  N   SER A   5       0.859  -6.385  -3.516  0.00  0.00    -0.295 N 
ATOM     39  H   SER A   5       1.619  -6.097  -2.867  0.00  0.00    +0.150 HD
ATOM     40  O   VAL A   4      -0.957  -5.693  -4.688  0.00  0.00    -0.273 OA
BRANCH  38  41
ATOM     41  CA  SER A   5       0.829  -7.773  -4.006  0.00  0.00    +0.178 C 
BRANCH  41  42
ATOM     42  C   SER A   5      -0.200  -8.625  -3.210  0.00  0.00    +0.243 C 
ATOM     43  N   TYR A   6      -0.163  -8.465  -1.891  0.00  0.00    -0.297 N 
ATOM     44  H   TYR A   6       0.550  -7.821  -1.493  0.00  0.00    +0.150 HD
ATOM     45  O   SER A   5      -1.001  -9.388  -3.782  0.00  0.00    -0.273 OA
BRANCH  43  46
ATOM     46  CA  TYR A   6      -1.064  -9.141  -0.976  0.00  0.00    +0.153 C 
BRANCH  46  47
ATOM     47  C   TYR A   6      -0.977  -8.481   0.396  0.00  0.00    +0.241 C 
ATOM     48  N   TYR A   7      -1.994  -8.727   1.228  0.00  0.00    -0.298 N 
ATOM     49  H   TYR A   7      -2.831  -9.217   0.852  0.00  0.00    +0.150 HD
ATOM     50  O   TYR A   6      -0.049  -7.721   0.674  0.00  0.00    -0.273 OA
BRANCH  48  51
ATOM     51  CA  TYR A   7      -1.991  -8.346   2.625  0.00  0.00    +0.141 C 
BRANCH  51  52
ATOM     52  C   TYR A   7      -1.766  -9.538   3.566  0.00  0.00    +0.227 C 
ATOM     53  O   TYR A   7      -2.206 -10.665   3.301  0.00  0.00    -0.286 OA
ENDBRANCH  51  52
BRANCH  51  54
ATOM     54  CB  TYR A   7      -3.303  -7.708   3.014  0.00  0.00    +0.054 C 
BRANCH  54  55
ATOM     55  CG  TYR A   7      -3.659  -6.441   2.291  0.00  0.00    -0.020 A 
ATOM     56  CD2 TYR A   7      -3.189  -5.209   2.732  0.00  0.00    -0.001 A 
ATOM     57  CE2 TYR A   7      -3.574  -4.041   2.088  0.00  0.00    +0.036 A 
ATOM     58  CZ  TYR A   7      -4.453  -4.091   1.002  0.00  0.00    +0.134 A 
ATOM     59  CE1 TYR A   7      -4.907  -5.306   0.564  0.00  0.00    +0.036 A 
ATOM     60  CD1 TYR A   7      -4.548  -6.459   1.241  0.00  0.00    -0.001 A 
BRANCH  58  61
ATOM     61  OH  TYR A   7      -4.877  -2.930   0.351  0.00  0.00    -0.506 OA
ATOM     62  HH  TYR A   7      -4.464  -2.141   0.783  0.00  0.00    +0.292 HD
ENDBRANCH  58  61
ENDBRANCH  54  55
ENDBRANCH  51  54
ENDBRANCH  48  51
ENDBRANCH  46  47
BRANCH  46  63
ATOM     63  CB  TYR A   6      -0.710 -10.650  -0.887  0.00  0.00    +0.055 C 
BRANCH  63  64
ATOM     64  CG  TYR A   6       0.572 -10.948  -0.159  0.00  0.00    -0.020 A 
ATOM     65  CD2 TYR A   6       0.578 -11.295   1.206  0.00  0.00    -0.001 A 
ATOM     66  CE2 TYR A   6       1.779 -11.566   1.869  0.00  0.00    +0.036 A 
ATOM     67  CZ  TYR A   6       2.969 -11.472   1.178  0.00  0.00    +0.134 A 
ATOM     68  CE1 TYR A   6       2.978 -11.119  -0.140  0.00  0.00    +0.036 A 
ATOM     69  CD1 TYR A   6       1.801 -10.861  -0.808  0.00  0.00    -0.001 A 
BRANCH  67  70
ATOM     70  OH  TYR A   6       4.173 -11.739   1.800  0.00  0.00    -0.506 OA
ATOM     71  HH  TYR A   6       4.008 -11.979   2.746  0.00  0.00    +0.292 HD
ENDBRANCH  67  70
ENDBRANCH  63  64
ENDBRANCH  46  63
ENDBRANCH  43  46
ENDBRANCH  41  42
BRANCH  41  72
ATOM     72  CB  SER A   5       2.215  -8.412  -3.919  0.00  0.00    +0.166 C 
BRANCH  72  73
ATOM     73  OG  SER A   5       2.202  -9.697  -4.535  0.00  0.00    -0.380 OA
ATOM     74  H   SER A   5       1.946  -9.603  -5.487  0.00  0.00    +0.211 HD
ENDBRANCH  72  73
ENDBRANCH  41  72
ENDBRANCH  38  41
ENDBRANCH   1  37
BRANCH   1  75
ATOM     75  CB  VAL A   4      -1.118  -3.916  -2.219  0.00  0.00    +0.027 C 
ATOM     76  CG2 VAL A   4      -1.211  -5.074  -1.223  0.00  0.00    +0.002 C 
ATOM     77  CG1 VAL A   4      -0.918  -2.608  -1.495  0.00  0.00    +0.002 C 
ENDBRANCH   1  75
TORSDOF 29
REMARK  Name = ../refined-set-2016/2qbw/2qbw_pocket.pdb
REMARK  239 active torsions:
REMARK  status: ('A' for Active; 'I' for Inactive)
REMARK    1  A    between atoms: _1  and  _5
REMARK    2  A    between atoms: _5  and  _6
REMARK    3  A    between atoms: _5  and  _8
REMARK    4  A    between atoms: _8  and  _9
REMARK    5  A    between atoms: _12  and  _13
REMARK    6  A    between atoms: _18  and  _20
REMARK    7  A    between atoms: _20  and  _21
REMARK    8  A    between atoms: _20  and  _23
REMARK    9  A    between atoms: _23  and  _24
REMARK   10  A    between atoms: _24  and  _25
REMARK   11  A    between atoms: _28  and  _30
REMARK   12  A    between atoms: _30  and  _31
REMARK   13  A    between atoms: _30  and  _33
REMARK   14  A    between atoms: _33  and  _34
REMARK   15  A    between atoms: _37  and  _39
REMARK   16  A    between atoms: _39  and  _40
REMARK   17  A    between atoms: _42  and  _44
REMARK   18  A    between atoms: _44  and  _45
REMARK   19  A    between atoms: _44  and  _47
REMARK   20  A    between atoms: _47  and  _48
REMARK   21  A    between atoms: _54  and  _56
REMARK   22  A    between atoms: _56  and  _57
REMARK   23  A    between atoms: _56  and  _59
REMARK   24  A    between atoms: _59  and  _60
REMARK   25  A    between atoms: _62  and  _64
REMARK   26  A    between atoms: _64  and  _65
REMARK   27  A    between atoms: _64  and  _67
REMARK   28  A    between atoms: _67  and  _68
REMARK   29  A    between atoms: _71  and  _73
REMARK   30  A    between atoms: _73  and  _74
REMARK   31  A    between atoms: _73  and  _76
REMARK   32  A    between atoms: _76  and  _77
REMARK   33  A    between atoms: _79  and  _81
REMARK   34  A    between atoms: _81  and  _82
REMARK   35  A    between atoms: _84  and  _86
REMARK   36  A    between atoms: _86  and  _87
REMARK   37  A    between atoms: _89  and  _91
REMARK   38  A    between atoms: _91  and  _92
REMARK   39  A    between atoms: _94  and  _96
REMARK   40  A    between atoms: _96  and  _97
REMARK   41  A    between atoms: _96  and  _99
REMARK   42  A    between atoms: _99  and  _100
REMARK   43  A    between atoms: _100  and  _101
REMARK   44  A    between atoms: _101  and  _102
REMARK   45  A    between atoms: _111  and  _113
REMARK   46  A    between atoms: _113  and  _114
REMARK   47  A    between atoms: _116  and  _118
REMARK   48  A    between atoms: _118  and  _119
REMARK   49  A    between atoms: _118  and  _121
REMARK   50  A    between atoms: _121  and  _122
REMARK   51  A    between atoms: _128  and  _129
REMARK   52  A    between atoms: _134  and  _136
REMARK   53  A    between atoms: _136  and  _137
REMARK   54  A    between atoms: _136  and  _139
REMARK   55  A    between atoms: _139  and  _140
REMARK   56  A    between atoms: _146  and  _148
REMARK   57  A    between atoms: _148  and  _149
REMARK   58  A    between atoms: _148  and  _151
REMARK   59  A    between atoms: _151  and  _152
REMARK   60  A    between atoms: _155  and  _157
REMARK   61  A    between atoms: _157  and  _158
REMARK   62  A    between atoms: _157  and  _160
REMARK   63  A    between atoms: _160  and  _161
REMARK   64  A    between atoms: _167  and  _169
REMARK   65  A    between atoms: _169  and  _170
REMARK   66  A    between atoms: _169  and  _172
REMARK   67  A    between atoms: _175  and  _177
REMARK   68  A    between atoms: _177  and  _178
REMARK   69  A    between atoms: _177  and  _180
REMARK   70  A    between atoms: _180  and  _181
REMARK   71  A    between atoms: _184  and  _186
REMARK   72  A    between atoms: _186  and  _187
REMARK   73  A    between atoms: _186  and  _189
REMARK   74  A    between atoms: _189  and  _190
REMARK   75  A    between atoms: _190  and  _191
REMARK   76  A    between atoms: _191  and  _192
REMARK   77  A    between atoms: _201  and  _203
REMARK   78  A    between atoms: _203  and  _204
REMARK   79  A    between atoms: _203  and  _206
REMARK   80  A    between atoms: _209  and  _211
REMARK   81  A    between atoms: _211  and  _212
REMARK   82  A    between atoms: _211  and  _214
REMARK   83  A    between atoms: _214  and  _215
REMARK   84  A    between atoms: _215  and  _216
REMARK   85  A    between atoms: _222  and  _223
REMARK   86  A    between atoms: _229  and  _230
REMARK   87  A    between atoms: _235  and  _237
REMARK   88  A    between atoms: _237  and  _238
REMARK   89  A    between atoms: _241  and  _243
REMARK   90  A    between atoms: _243  and  _244
REMARK   91  A    between atoms: _243  and  _246
REMARK   92  A    between atoms: _246  and  _247
REMARK   93  A    between atoms: _250  and  _252
REMARK   94  A    between atoms: _252  and  _253
REMARK   95  A    between atoms: _252  and  _255
REMARK   96  A    between atoms: _255  and  _256
REMARK   97  A    between atoms: _259  and  _261
REMARK   98  A    between atoms: _261  and  _262
REMARK   99  A    between atoms: _261  and  _264
REMARK  100  A    between atoms: _264  and  _265
REMARK  101  A    between atoms: _271  and  _273
REMARK  102  A    between atoms: _273  and  _274
REMARK  103  A    between atoms: _273  and  _276
REMARK  104  A    between atoms: _276  and  _277
REMARK  105  A    between atoms: _282  and  _284
REMARK  106  A    between atoms: _284  and  _285
REMARK  107  A    between atoms: _287  and  _289
REMARK  108  A    between atoms: _289  and  _290
REMARK  109  A    between atoms: _293  and  _295
REMARK  110  A    between atoms: _295  and  _296
REMARK  111  A    between atoms: _295  and  _298
REMARK  112  A    between atoms: _301  and  _303
REMARK  113  A    between atoms: _303  and  _304
REMARK  114  A    between atoms: _303  and  _306
REMARK  115  A    between atoms: _306  and  _307
REMARK  116  A    between atoms: _309  and  _311
REMARK  117  A    between atoms: _311  and  _312
REMARK  118  A    between atoms: _311  and  _314
REMARK  119  A    between atoms: _314  and  _315
REMARK  120  A    between atoms: _318  and  _320
REMARK  121  A    between atoms: _320  and  _321
REMARK  122  A    between atoms: _320  and  _323
REMARK  123  A    between atoms: _323  and  _324
REMARK  124  A    between atoms: _327  and  _329
REMARK  125  A    between atoms: _329  and  _330
REMARK  126  A    between atoms: _329  and  _332
REMARK  127  A    between atoms: _332  and  _333
REMARK  128  A    between atoms: _333  and  _334
REMARK  129  A    between atoms: _334  and  _335
REMARK  130  A    between atoms: _335  and  _336
REMARK  131  A    between atoms: _340  and  _342
REMARK  132  A    between atoms: _342  and  _343
REMARK  133  A    between atoms: _342  and  _345
REMARK  134  A    between atoms: _345  and  _346
REMARK  135  A    between atoms: _349  and  _351
REMARK  136  A    between atoms: _351  and  _352
REMARK  137  A    between atoms: _351  and  _354
REMARK  138  A    between atoms: _354  and  _355
REMARK  139  A    between atoms: _361  and  _363
REMARK  140  A    between atoms: _363  and  _364
REMARK  141  A    between atoms: _363  and  _366
REMARK  142  A    between atoms: _369  and  _371
REMARK  143  A    between atoms: _371  and  _372
REMARK  144  A    between atoms: _371  and  _374
REMARK  145  A    between atoms: _374  and  _375
REMARK  146  A    between atoms: _378  and  _380
REMARK  147  A    between atoms: _380  and  _381
REMARK  148  A    between atoms: _380  and  _383
REMARK  149  A    between atoms: _386  and  _388
REMARK  150  A    between atoms: _388  and  _389
REMARK  151  A    between atoms: _388  and  _391
REMARK  152  A    between atoms: _391  and  _392
REMARK  153  A    between atoms: _392  and  _393
REMARK  154  A    between atoms: _393  and  _394
REMARK  155  A    between atoms: _394  and  _395
REMARK  156  A    between atoms: _399  and  _401
REMARK  157  A    between atoms: _401  and  _402
REMARK  158  A    between atoms: _401  and  _404
REMARK  159  A    between atoms: _404  and  _405
REMARK  160  A    between atoms: _408  and  _410
REMARK  161  A    between atoms: _410  and  _411
REMARK  162  A    between atoms: _410  and  _413
REMARK  163  A    between atoms: _413  and  _414
REMARK  164  A    between atoms: _419  and  _420
REMARK  165  A    between atoms: _422  and  _424
REMARK  166  A    between atoms: _424  and  _425
REMARK  167  A    between atoms: _424  and  _427
REMARK  168  A    between atoms: _427  and  _428
REMARK  169  A    between atoms: _433  and  _434
REMARK  170  A    between atoms: _436  and  _438
REMARK  171  A    between atoms: _438  and  _439
REMARK  172  A    between atoms: _441  and  _443
REMARK  173  A    between atoms: _443  and  _444
REMARK  174  A    between atoms: _443  and  _446
REMARK  175  A    between atoms: _449  and  _451
REMARK  176  A    between atoms: _451  and  _452
REMARK  177  A    between atoms: _451  and  _454
REMARK  178  A    between atoms: _454  and  _455
REMARK  179  A    between atoms: _457  and  _459
REMARK  180  A    between atoms: _459  and  _460
REMARK  181  A    between atoms: _459  and  _462
REMARK  182  A    between atoms: _462  and  _463
REMARK  183  A    between atoms: _468  and  _469
REMARK  184  A    between atoms: _471  and  _473
REMARK  185  A    between atoms: _473  and  _474
REMARK  186  A    between atoms: _473  and  _476
REMARK  187  A    between atoms: _476  and  _477
REMARK  188  A    between atoms: _482  and  _483
REMARK  189  A    between atoms: _485  and  _487
REMARK  190  A    between atoms: _487  and  _488
REMARK  191  A    between atoms: _487  and  _490
REMARK  192  A    between atoms: _490  and  _491
REMARK  193  A    between atoms: _494  and  _496
REMARK  194  A    between atoms: _496  and  _497
REMARK  195  A    between atoms: _496  and  _499
REMARK  196  A    between atoms: _503  and  _504
REMARK  197  A    between atoms: _509  and  _511
REMARK  198  A    between atoms: _511  and  _512
REMARK  199  A    between atoms: _511  and  _514
REMARK  200  A    between atoms: _514  and  _515
REMARK  201  A    between atoms: _520  and  _521
REMARK  202  A    between atoms: _523  and  _525
REMARK  203  A    between atoms: _525  and  _526
REMARK  204  A    between atoms: _525  and  _528
REMARK  205  A    between atoms: _528  and  _529
REMARK  206  A    between atoms: _534  and  _535
REMARK  207  A    between atoms: _537  and  _539
REMARK  208  A    between atoms: _539  and  _540
REMARK  209  A    between atoms: _539  and  _542
REMARK  210  A    between atoms: _542  and  _543
REMARK  211  A    between atoms: _545  and  _547
REMARK  212  A    between atoms: _547  and  _548
REMARK  213  A    between atoms: _547  and  _550
REMARK  214  A    between atoms: _550  and  _551
REMARK  215  A    between atoms: _554  and  _556
REMARK  216  A    between atoms: _556  and  _557
REMARK  217  A    between atoms: _556  and  _559
REMARK  218  A    between atoms: _559  and  _560
REMARK  219  A    between atoms: _565  and  _566
REMARK  220  A    between atoms: _568  and  _570
REMARK  221  A    between atoms: _570  and  _571
REMARK  222  A    between atoms: _570  and  _573
REMARK  223  A    between atoms: _573  and  _574
REMARK  224  A    between atoms: _579  and  _580
REMARK  225  A    between atoms: _582  and  _584
REMARK  226  A    between atoms: _584  and  _585
REMARK  227  A    between atoms: _587  and  _589
REMARK  228  A    between atoms: _589  and  _590
REMARK  229  A    between atoms: _589  and  _592
REMARK  230  A    between atoms: _592  and  _593
REMARK  231  A    between atoms: _595  and  _597
REMARK  232  A    between atoms: _597  and  _598
REMARK  233  A    between atoms: _597  and  _600
REMARK  234  A    between atoms: _600  and  _601
REMARK  235  A    between atoms: _606  and  _608
REMARK  236  A    between atoms: _608  and  _609
REMARK  237  A    between atoms: _608  and  _611
REMARK  238  A    between atoms: _611  and  _612
REMARK  239  A    between atoms: _617  and  _618
REMARK                            x       y       z     vdW  Elec       q    Type
REMARK                         _______ _______ _______ _____ _____    ______ ____
ROOT
ATOM      1  C   VAL A   2      -5.366 -11.186   0.587  0.00  0.00    +0.244 C 
ATOM      2  O   VAL A   2      -4.285 -10.579   0.611  0.00  0.00    -0.273 OA
ATOM      3  N   PRO A   3      -6.106 -11.303  -0.528  0.00  0.00    -0.272 N 
ATOM      4  CD  PRO A   3      -7.380 -12.022  -0.694  0.00  0.00    +0.094 C 
ATOM      5  CG  PRO A   3      -7.735 -11.789  -2.108  0.00  0.00    +0.024 C 
ATOM      6  CB  PRO A   3      -6.595 -11.317  -2.834  0.00  0.00    +0.031 C 
ATOM      7  CA  PRO A   3      -5.624 -10.747  -1.790  0.00  0.00    +0.152 C 
ENDROOT
BRANCH   7   8
ATOM      8  C   PRO A   3      -5.643  -9.220  -1.804  0.00  0.00    +0.241 C 
ATOM      9  O   PRO A   3      -6.286  -8.609  -0.975  0.00  0.00    -0.273 OA
ATOM     10  N   TYR A   4      -4.977  -8.647  -2.786  0.00  0.00    -0.298 N 
ATOM     11  H   TYR A   4      -4.508  -9.252  -3.490  0.00  0.00    +0.150 HD
BRANCH  10  12
ATOM     12  CA  TYR A   4      -4.871  -7.197  -2.925  0.00  0.00    +0.141 C 
BRANCH  12  13
ATOM     13  C   TYR A   4      -6.214  -6.506  -3.068  0.00  0.00    +0.227 C 
ATOM     14  O   TYR A   4      -6.305  -5.306  -2.803  0.00  0.00    -0.286 OA
ENDBRANCH  12  13
BRANCH  12  15
ATOM     15  CB  TYR A   4      -3.976  -6.847  -4.120  0.00  0.00    +0.054 C 
BRANCH  15  16
ATOM     16  CG  TYR A   4      -4.638  -6.951  -5.483  0.00  0.00    -0.020 A 
ATOM     17  CD2 TYR A   4      -5.374  -5.894  -5.994  0.00  0.00    -0.001 A 
ATOM     18  CE2 TYR A   4      -5.979  -5.964  -7.205  0.00  0.00    +0.036 A 
ATOM     19  CZ  TYR A   4      -5.878  -7.104  -7.941  0.00  0.00    +0.134 A 
ATOM     20  CE1 TYR A   4      -5.158  -8.170  -7.457  0.00  0.00    +0.036 A 
ATOM     21  CD1 TYR A   4      -4.554  -8.089  -6.234  0.00  0.00    -0.001 A 
BRANCH  19  22
ATOM     22  OH  TYR A   4      -6.500  -7.166  -9.171  0.00  0.00    -0.506 OA
ATOM     23  HH  TYR A   4      -6.335  -8.053  -9.579  0.00  0.00    +0.292 HD
ENDBRANCH  19  22
ENDBRANCH  15  16
ENDBRANCH  12  15
ENDBRANCH  10  12
ENDBRANCH   7   8
BRANCH   1  24
ATOM     24  CA  VAL A   2      -5.870 -11.887   1.848  0.00  0.00    +0.149 C 
BRANCH  24  27
ATOM     25  C   THR A   1      -4.506 -13.338   3.276  0.00  0.00    +0.241 C 
ATOM     26  O   THR A   1      -5.357 -14.252   3.282  0.00  0.00    -0.274 OA
ATOM     27  N   VAL A   2      -4.705 -12.162   2.688  0.00  0.00    -0.297 N 
ATOM     28  H   VAL A   2      -4.004 -11.407   2.831  0.00  0.00    +0.150 HD
BRANCH  25  29
ATOM     29  CA  THR A   1      -3.171 -13.489   3.998  0.00  0.00    +0.172 C 
BRANCH  29  30
ATOM     30  N   THR A   1      -3.256 -14.460   5.101  0.00  0.00    -0.236 NA
ATOM     31  H   THR A   1      -3.421 -15.462   4.877  0.00  0.00    +0.142 HD
ENDBRANCH  29  30
BRANCH  29  32
ATOM     32  CB  THR A   1      -2.063 -13.843   3.002  0.00  0.00    +0.135 C 
ATOM     33  CG2 THR A   1      -0.740 -13.941   3.740  0.00  0.00    +0.034 C 
BRANCH  32  34
ATOM     34  OG1 THR A   1      -2.343 -15.111   2.402  0.00  0.00    -0.383 OA
ATOM     35  HG1 THR A   1      -3.210 -15.066   1.927  0.00  0.00    +0.210 HD
ENDBRANCH  32  34
ENDBRANCH  29  32
ENDBRANCH  25  29
ENDBRANCH  24  27
BRANCH  24  36
ATOM     36  CB  VAL A   2      -6.959 -11.063   2.523  0.00  0.00    +0.027 C 
ATOM     37  CG2 VAL A   2      -7.476 -11.779   3.765  0.00  0.00    +0.002 C 
ATOM     38  CG1 VAL A   2      -6.492  -9.677   2.851  0.00  0.00    +0.002 C 
ENDBRANCH  24  36
ENDBRANCH   1  24
TORSDOF 13
REMARK  Name = ../refined-set-2016/2qbw/2qbw_pocket.pdb
REMARK  239 active torsions:
REMARK  status: ('A' for Active; 'I' for Inactive)
REMARK    1  A    between atoms: _1  and  _5
REMARK    2  A    between atoms: _5  and  _6
REMARK    3  A    between atoms: _5  and  _8
REMARK    4  A    between atoms: _8  and  _9
REMARK    5  A    between atoms: _12  and  _13
REMARK    6  A    between atoms: _18  and  _20
REMARK    7  A    between atoms: _20  and  _21
REMARK    8  A    between atoms: _20  and  _23
REMARK    9  A    between atoms: _23  and  _24
REMARK   10  A    between atoms: _24  and  _25
REMARK   11  A    between atoms: _28  and  _30
REMARK   12  A    between atoms: _30  and  _31
REMARK   13  A    between atoms: _30  and  _33
REMARK   14  A    between atoms: _33  and  _34
REMARK   15  A    between atoms: _37  and  _39
REMARK   16  A    between atoms: _39  and  _40
REMARK   17  A    between atoms: _42  and  _44
REMARK   18  A    between atoms: _44  and  _45
REMARK   19  A    between atoms: _44  and  _47
REMARK   20  A    between atoms: _47  and  _48
REMARK   21  A    between atoms: _54  and  _56
REMARK   22  A    between atoms: _56  and  _57
REMARK   23  A    between atoms: _56  and  _59
REMARK   24  A    between atoms: _59  and  _60
REMARK   25  A    between atoms: _62  and  _64
REMARK   26  A    between atoms: _64  and  _65
REMARK   27  A    between atoms: _64  and  _67
REMARK   28  A    between atoms: _67  and  _68
REMARK   29  A    between atoms: _71  and  _73
REMARK   30  A    between atoms: _73  and  _74
REMARK   31  A    between atoms: _73  and  _76
REMARK   32  A    between atoms: _76  and  _77
REMARK   33  A    between atoms: _79  and  _81
REMARK   34  A    between atoms: _81  and  _82
REMARK   35  A    between atoms: _84  and  _86
REMARK   36  A    between atoms: _86  and  _87
REMARK   37  A    between atoms: _89  and  _91
REMARK   38  A    between atoms: _91  and  _92
REMARK   39  A    between atoms: _94  and  _96
REMARK   40  A    between atoms: _96  and  _97
REMARK   41  A    between atoms: _96  and  _99
REMARK   42  A    between atoms: _99  and  _100
REMARK   43  A    between atoms: _100  and  _101
REMARK   44  A    between atoms: _101  and  _102
REMARK   45  A    between atoms: _111  and  _113
REMARK   46  A    between atoms: _113  and  _114
REMARK   47  A    between atoms: _116  and  _118
REMARK   48  A    between atoms: _118  and  _119
REMARK   49  A    between atoms: _118  and  _121
REMARK   50  A    between atoms: _121  and  _122
REMARK   51  A    between atoms: _128  and  _129
REMARK   52  A    between atoms: _134  and  _136
REMARK   53  A    between atoms: _136  and  _137
REMARK   54  A    between atoms: _136  and  _139
REMARK   55  A    between atoms: _139  and  _140
REMARK   56  A    between atoms: _146  and  _148
REMARK   57  A    between atoms: _148  and  _149
REMARK   58  A    between atoms: _148  and  _151
REMARK   59  A    between atoms: _151  and  _152
REMARK   60  A    between atoms: _155  and  _157
REMARK   61  A    between atoms: _157  and  _158
REMARK   62  A    between atoms: _157  and  _160
REMARK   63  A    between atoms: _160  and  _161
REMARK   64  A    between atoms: _167  and  _169
REMARK   65  A    between atoms: _169  and  _170
REMARK   66  A    between atoms: _169  and  _172
REMARK   67  A    between atoms: _175  and  _177
REMARK   68  A    between atoms: _177  and  _178
REMARK   69  A    between atoms: _177  and  _180
REMARK   70  A    between atoms: _180  and  _181
REMARK   71  A    between atoms: _184  and  _186
REMARK   72  A    between atoms: _186  and  _187
REMARK   73  A    between atoms: _186  and  _189
REMARK   74  A    between atoms: _189  and  _190
REMARK   75  A    between atoms: _190  and  _191
REMARK   76  A    between atoms: _191  and  _192
REMARK   77  A    between atoms: _201  and  _203
REMARK   78  A    between atoms: _203  and  _204
REMARK   79  A    between atoms: _203  and  _206
REMARK   80  A    between atoms: _209  and  _211
REMARK   81  A    between atoms: _211  and  _212
REMARK   82  A    between atoms: _211  and  _214
REMARK   83  A    between atoms: _214  and  _215
REMARK   84  A    between atoms: _215  and  _216
REMARK   85  A    between atoms: _222  and  _223
REMARK   86  A    between atoms: _229  and  _230
REMARK   87  A    between atoms: _235  and  _237
REMARK   88  A    between atoms: _237  and  _238
REMARK   89  A    between atoms: _241  and  _243
REMARK   90  A    between atoms: _243  and  _244
REMARK   91  A    between atoms: _243  and  _246
REMARK   92  A    between atoms: _246  and  _247
REMARK   93  A    between atoms: _250  and  _252
REMARK   94  A    between atoms: _252  and  _253
REMARK   95  A    between atoms: _252  and  _255
REMARK   96  A    between atoms: _255  and  _256
REMARK   97  A    between atoms: _259  and  _261
REMARK   98  A    between atoms: _261  and  _262
REMARK   99  A    between atoms: _261  and  _264
REMARK  100  A    between atoms: _264  and  _265
REMARK  101  A    between atoms: _271  and  _273
REMARK  102  A    between atoms: _273  and  _274
REMARK  103  A    between atoms: _273  and  _276
REMARK  104  A    between atoms: _276  and  _277
REMARK  105  A    between atoms: _282  and  _284
REMARK  106  A    between atoms: _284  and  _285
REMARK  107  A    between atoms: _287  and  _289
REMARK  108  A    between atoms: _289  and  _290
REMARK  109  A    between atoms: _293  and  _295
REMARK  110  A    between atoms: _295  and  _296
REMARK  111  A    between atoms: _295  and  _298
REMARK  112  A    between atoms: _301  and  _303
REMARK  113  A    between atoms: _303  and  _304
REMARK  114  A    between atoms: _303  and  _306
REMARK  115  A    between atoms: _306  and  _307
REMARK  116  A    between atoms: _309  and  _311
REMARK  117  A    between atoms: _311  and  _312
REMARK  118  A    between atoms: _311  and  _314
REMARK  119  A    between atoms: _314  and  _315
REMARK  120  A    between atoms: _318  and  _320
REMARK  121  A    between atoms: _320  and  _321
REMARK  122  A    between atoms: _320  and  _323
REMARK  123  A    between atoms: _323  and  _324
REMARK  124  A    between atoms: _327  and  _329
REMARK  125  A    between atoms: _329  and  _330
REMARK  126  A    between atoms: _329  and  _332
REMARK  127  A    between atoms: _332  and  _333
REMARK  128  A    between atoms: _333  and  _334
REMARK  129  A    between atoms: _334  and  _335
REMARK  130  A    between atoms: _335  and  _336
REMARK  131  A    between atoms: _340  and  _342
REMARK  132  A    between atoms: _342  and  _343
REMARK  133  A    between atoms: _342  and  _345
REMARK  134  A    between atoms: _345  and  _346
REMARK  135  A    between atoms: _349  and  _351
REMARK  136  A    between atoms: _351  and  _352
REMARK  137  A    between atoms: _351  and  _354
REMARK  138  A    between atoms: _354  and  _355
REMARK  139  A    between atoms: _361  and  _363
REMARK  140  A    between atoms: _363  and  _364
REMARK  141  A    between atoms: _363  and  _366
REMARK  142  A    between atoms: _369  and  _371
REMARK  143  A    between atoms: _371  and  _372
REMARK  144  A    between atoms: _371  and  _374
REMARK  145  A    between atoms: _374  and  _375
REMARK  146  A    between atoms: _378  and  _380
REMARK  147  A    between atoms: _380  and  _381
REMARK  148  A    between atoms: _380  and  _383
REMARK  149  A    between atoms: _386  and  _388
REMARK  150  A    between atoms: _388  and  _389
REMARK  151  A    between atoms: _388  and  _391
REMARK  152  A    between atoms: _391  and  _392
REMARK  153  A    between atoms: _392  and  _393
REMARK  154  A    between atoms: _393  and  _394
REMARK  155  A    between atoms: _394  and  _395
REMARK  156  A    between atoms: _399  and  _401
REMARK  157  A    between atoms: _401  and  _402
REMARK  158  A    between atoms: _401  and  _404
REMARK  159  A    between atoms: _404  and  _405
REMARK  160  A    between atoms: _408  and  _410
REMARK  161  A    between atoms: _410  and  _411
REMARK  162  A    between atoms: _410  and  _413
REMARK  163  A    between atoms: _413  and  _414
REMARK  164  A    between atoms: _419  and  _420
REMARK  165  A    between atoms: _422  and  _424
REMARK  166  A    between atoms: _424  and  _425
REMARK  167  A    between atoms: _424  and  _427
REMARK  168  A    between atoms: _427  and  _428
REMARK  169  A    between atoms: _433  and  _434
REMARK  170  A    between atoms: _436  and  _438
REMARK  171  A    between atoms: _438  and  _439
REMARK  172  A    between atoms: _441  and  _443
REMARK  173  A    between atoms: _443  and  _444
REMARK  174  A    between atoms: _443  and  _446
REMARK  175  A    between atoms: _449  and  _451
REMARK  176  A    between atoms: _451  and  _452
REMARK  177  A    between atoms: _451  and  _454
REMARK  178  A    between atoms: _454  and  _455
REMARK  179  A    between atoms: _457  and  _459
REMARK  180  A    between atoms: _459  and  _460
REMARK  181  A    between atoms: _459  and  _462
REMARK  182  A    between atoms: _462  and  _463
REMARK  183  A    between atoms: _468  and  _469
REMARK  184  A    between atoms: _471  and  _473
REMARK  185  A    between atoms: _473  and  _474
REMARK  186  A    between atoms: _473  and  _476
REMARK  187  A    between atoms: _476  and  _477
REMARK  188  A    between atoms: _482  and  _483
REMARK  189  A    between atoms: _485  and  _487
REMARK  190  A    between atoms: _487  and  _488
REMARK  191  A    between atoms: _487  and  _490
REMARK  192  A    between atoms: _490  and  _491
REMARK  193  A    between atoms: _494  and  _496
REMARK  194  A    between atoms: _496  and  _497
REMARK  195  A    between atoms: _496  and  _499
REMARK  196  A    between atoms: _503  and  _504
REMARK  197  A    between atoms: _509  and  _511
REMARK  198  A    between atoms: _511  and  _512
REMARK  199  A    between atoms: _511  and  _514
REMARK  200  A    between atoms: _514  and  _515
REMARK  201  A    between atoms: _520  and  _521
REMARK  202  A    between atoms: _523  and  _525
REMARK  203  A    between atoms: _525  and  _526
REMARK  204  A    between atoms: _525  and  _528
REMARK  205  A    between atoms: _528  and  _529
REMARK  206  A    between atoms: _534  and  _535
REMARK  207  A    between atoms: _537  and  _539
REMARK  208  A    between atoms: _539  and  _540
REMARK  209  A    between atoms: _539  and  _542
REMARK  210  A    between atoms: _542  and  _543
REMARK  211  A    between atoms: _545  and  _547
REMARK  212  A    between atoms: _547  and  _548
REMARK  213  A    between atoms: _547  and  _550
REMARK  214  A    between atoms: _550  and  _551
REMARK  215  A    between atoms: _554  and  _556
REMARK  216  A    between atoms: _556  and  _557
REMARK  217  A    between atoms: _556  and  _559
REMARK  218  A    between atoms: _559  and  _560
REMARK  219  A    between atoms: _565  and  _566
REMARK  220  A    between atoms: _568  and  _570
REMARK  221  A    between atoms: _570  and  _571
REMARK  222  A    between atoms: _570  and  _573
REMARK  223  A    between atoms: _573  and  _574
REMARK  224  A    between atoms: _579  and  _580
REMARK  225  A    between atoms: _582  and  _584
REMARK  226  A    between atoms: _584  and  _585
REMARK  227  A    between atoms: _587  and  _589
REMARK  228  A    between atoms: _589  and  _590
REMARK  229  A    between atoms: _589  and  _592
REMARK  230  A    between atoms: _592  and  _593
REMARK  231  A    between atoms: _595  and  _597
REMARK  232  A    between atoms: _597  and  _598
REMARK  233  A    between atoms: _597  and  _600
REMARK  234  A    between atoms: _600  and  _601
REMARK  235  A    between atoms: _606  and  _608
REMARK  236  A    between atoms: _608  and  _609
REMARK  237  A    between atoms: _608  and  _611
REMARK  238  A    between atoms: _611  and  _612
REMARK  239  A    between atoms: _617  and  _618
REMARK                            x       y       z     vdW  Elec       q    Type
REMARK                         _______ _______ _______ _____ _____    ______ ____
ROOT
ATOM      1  CA  TYR A   4       4.917 -11.575  -3.752  0.00  0.00    +0.153 C 
ENDROOT
BRANCH   1   2
ATOM      2  C   TYR A   4       5.715 -12.388  -2.773  0.00  0.00    +0.241 C 
ATOM      3  O   TYR A   4       5.132 -13.253  -2.080  0.00  0.00    -0.273 OA
ATOM      4  N   TYR A   5       7.005 -12.113  -2.679  0.00  0.00    -0.297 N 
ATOM      5  H   TYR A   5       7.397 -11.289  -3.177  0.00  0.00    +0.150 HD
BRANCH   4   6
ATOM      6  CA  TYR A   5       7.891 -12.974  -1.868  0.00  0.00    +0.153 C 
BRANCH   6   7
ATOM      7  C   TYR A   5       8.076 -12.396  -0.482  0.00  0.00    +0.241 C 
ATOM      8  O   TYR A   5       8.879 -12.876   0.338  0.00  0.00    -0.273 OA
ATOM      9  N   GLY A   6       7.362 -11.321  -0.212  0.00  0.00    -0.295 N 
ATOM     10  H   GLY A   6       6.841 -10.844  -0.975  0.00  0.00    +0.150 HD
BRANCH   9  11
ATOM     11  CA  GLY A   6       7.297 -10.801   1.129  0.00  0.00    +0.176 C 
BRANCH  11  12
ATOM     12  C   GLY A   6       8.487 -10.071   1.671  0.00  0.00    +0.243 C 
ATOM     13  O   GLY A   6       8.593  -9.956   2.879  0.00  0.00    -0.273 OA
ATOM     14  N   SER A   7       9.352  -9.527   0.810  0.00  0.00    -0.295 N 
ATOM     15  H   SER A   7       9.185  -9.625  -0.212  0.00  0.00    +0.150 HD
BRANCH  14  16
ATOM     16  CA  SER A   7      10.544  -8.787   1.285  0.00  0.00    +0.178 C 
BRANCH  16  17
ATOM     17  C   SER A   7      10.250  -7.337   1.642  0.00  0.00    +0.243 C 
ATOM     18  O   SER A   7      10.885  -6.771   2.546  0.00  0.00    -0.273 OA
ATOM     19  N   HIS A   8       9.305  -6.711   0.942  0.00  0.00    -0.298 N 
ATOM     20  H   HIS A   8       8.803  -7.215   0.183  0.00  0.00    +0.150 HD
BRANCH  19  21
ATOM     21  CA  HIS A   8       8.969  -5.315   1.236  0.00  0.00    +0.143 C 
BRANCH  21  22
ATOM     22  C   HIS A   8       7.526  -5.124   1.575  0.00  0.00    +0.227 C 
ATOM     23  O   HIS A   8       6.642  -5.439   0.772  0.00  0.00    -0.286 OA
ENDBRANCH  21  22
BRANCH  21  24
ATOM     24  CB  HIS A   8       9.306  -4.353   0.094  0.00  0.00    +0.075 C 
BRANCH  24  25
ATOM     25  CG  HIS A   8       8.739  -2.971   0.286  0.00  0.00    +0.082 A 
ATOM     26  ND1 HIS A   8       9.370  -1.994   1.022  0.00  0.00    -0.227 NA
ATOM     27  CE1 HIS A   8       8.628  -0.897   1.031  0.00  0.00    +0.199 A 
ATOM     28  NE2 HIS A   8       7.548  -1.120   0.301  0.00  0.00    -0.221 NA
ATOM     29  CD2 HIS A   8       7.596  -2.409  -0.173  0.00  0.00    +0.115 A 
ENDBRANCH  24  25
ENDBRANCH  21  24
ENDBRANCH  19  21
ENDBRANCH  16  17
BRANCH  16  30
ATOM     30  CB  SER A   7      11.667  -8.831   0.248  0.00  0.00    +0.166 C 
BRANCH  30  31
ATOM     31  OG  SER A   7      11.432  -7.848  -0.750  0.00  0.00    -0.380 OA
ATOM     32  H   SER A   7      10.566  -8.030  -1.194  0.00  0.00    +0.211 HD
ENDBRANCH  30  31
ENDBRANCH  16  30
ENDBRANCH  14  16
ENDBRANCH  11  12
ENDBRANCH   9  11
ENDBRANCH   6   7
BRANCH   6  33
ATOM     33  CB  TYR A   5       9.217 -13.270  -2.586  0.00  0.00    +0.055 C 
BRANCH  33  34
ATOM     34  CG  TYR A   5       9.920 -12.084  -3.170  0.00  0.00    -0.020 A 
ATOM     35  CD2 TYR A   5      11.025 -11.528  -2.555  0.00  0.00    -0.001 A 
ATOM     36  CE2 TYR A   5      11.687 -10.429  -3.117  0.00  0.00    +0.036 A 
ATOM     37  CZ  TYR A   5      11.223  -9.885  -4.278  0.00  0.00    +0.134 A 
ATOM     38  CE1 TYR A   5      10.134 -10.424  -4.903  0.00  0.00    +0.036 A 
ATOM     39  CD1 TYR A   5       9.491 -11.517  -4.367  0.00  0.00    -0.001 A 
BRANCH  37  40
ATOM     40  OH  TYR A   5      11.888  -8.816  -4.796  0.00  0.00    -0.506 OA
ATOM     41  HH  TYR A   5      12.824  -9.073  -4.989  0.00  0.00    +0.292 HD
ENDBRANCH  37  40
ENDBRANCH  33  34
ENDBRANCH   6  33
ENDBRANCH   4   6
ENDBRANCH   1   2
BRANCH   1  44
ATOM     42  C   ASP A   3       5.595  -9.323  -3.238  0.00  0.00    +0.241 C 
ATOM     43  O   ASP A   3       5.245  -9.444  -2.071  0.00  0.00    -0.273 OA
ATOM     44  N   TYR A   4       5.551 -10.317  -4.121  0.00  0.00    -0.297 N 
ATOM     45  H   TYR A   4       5.966 -10.197  -5.067  0.00  0.00    +0.150 HD
BRANCH  42  46
ATOM     46  CA  ASP A   3       6.161  -7.995  -3.714  0.00  0.00    +0.160 C 
BRANCH  46  48
ATOM     47  C   SER A   2       4.902  -5.931  -3.471  0.00  0.00    +0.243 C 
ATOM     48  N   ASP A   3       5.654  -6.880  -2.926  0.00  0.00    -0.296 N 
ATOM     49  H   ASP A   3       5.886  -6.826  -1.914  0.00  0.00    +0.150 HD
ATOM     50  O   SER A   2       4.570  -5.963  -4.658  0.00  0.00    -0.273 OA
BRANCH  47  51
ATOM     51  CA  SER A   2       4.431  -4.786  -2.557  0.00  0.00    +0.178 C 
BRANCH  51  53
ATOM     52  C   TYR A   1       3.342  -5.810  -0.662  0.00  0.00    +0.239 C 
ATOM     53  N   SER A   2       4.401  -5.188  -1.160  0.00  0.00    -0.295 N 
ATOM     54  H   SER A   2       5.217  -4.986  -0.547  0.00  0.00    +0.150 HD
ATOM     55  O   TYR A   1       2.325  -6.079  -1.334  0.00  0.00    -0.274 OA
BRANCH  52  56
ATOM     56  CA  TYR A   1       3.433  -6.194   0.786  0.00  0.00    +0.149 C 
BRANCH  56  57
ATOM     57  N   TYR A   1       2.185  -5.874   1.454  0.00  0.00    -0.238 NA
ATOM     58  H   TYR A   1       1.407  -6.563   1.412  0.00  0.00    +0.142 HD
ENDBRANCH  56  57
BRANCH  56  59
ATOM     59  CB  TYR A   1       3.719  -7.689   0.882  0.00  0.00    +0.053 C 
BRANCH  59  60
ATOM     60  CG  TYR A   1       4.086  -8.125   2.261  0.00  0.00    -0.020 A 
ATOM     61  CD2 TYR A   1       3.102  -8.447   3.200  0.00  0.00    -0.001 A 
ATOM     62  CE2 TYR A   1       3.434  -8.851   4.466  0.00  0.00    +0.036 A 
ATOM     63  CZ  TYR A   1       4.755  -8.933   4.852  0.00  0.00    +0.134 A 
ATOM     64  CE1 TYR A   1       5.772  -8.595   3.972  0.00  0.00    +0.036 A 
ATOM     65  CD1 TYR A   1       5.426  -8.195   2.660  0.00  0.00    -0.001 A 
BRANCH  63  66
ATOM     66  OH  TYR A   1       5.062  -9.314   6.144  0.00  0.00    -0.506 OA
ATOM     67  HH  TYR A   1       5.540  -8.576   6.600  0.00  0.00    +0.292 HD
ENDBRANCH  63  66
ENDBRANCH  59  60
ENDBRANCH  56  59
ENDBRANCH  52  56
ENDBRANCH  51  53
BRANCH  51  68
ATOM     68  CB  SER A   2       5.314  -3.547  -2.709  0.00  0.00    +0.166 C 
BRANCH  68  69
ATOM     69  OG  SER A   2       6.678  -3.856  -2.440  0.00  0.00    -0.380 OA
ATOM     70  H   SER A   2       6.990  -4.548  -3.075  0.00  0.00    +0.211 HD
ENDBRANCH  68  69
ENDBRANCH  51  68
ENDBRANCH  47  51
ENDBRANCH  46  48
BRANCH  46  71
ATOM     71  CB  ASP A   3       7.692  -8.046  -3.690  0.00  0.00    +0.143 C 
BRANCH  71  72
ATOM     72  CG  ASP A   3       8.277  -8.247  -2.292  0.00  0.00    +0.367 C 
ATOM     73  OD2 ASP A   3       8.599  -7.253  -1.624  0.00  0.00    -0.246 OA
ATOM     74  OD1 ASP A   3       8.432  -9.398  -1.867  0.00  0.00    -0.246 OA
ENDBRANCH  71  72
ENDBRANCH  46  71
ENDBRANCH  42  46
ENDBRANCH   1  44
BRANCH   1  75
ATOM     75  CB  TYR A   4       4.541 -12.428  -4.931  0.00  0.00    +0.055 C 
BRANCH  75  76
ATOM     76  CG  TYR A   4       5.663 -13.160  -5.651  0.00  0.00    -0.020 A 
ATOM     77  CD2 TYR A   4       6.328 -14.250  -5.066  0.00  0.00    -0.001 A 
ATOM     78  CE2 TYR A   4       7.337 -14.925  -5.752  0.00  0.00    +0.036 A 
ATOM     79  CZ  TYR A   4       7.644 -14.555  -7.038  0.00  0.00    +0.134 A 
ATOM     80  CE1 TYR A   4       6.960 -13.510  -7.646  0.00  0.00    +0.036 A 
ATOM     81  CD1 TYR A   4       5.991 -12.825  -6.950  0.00  0.00    -0.001 A 
BRANCH  79  82
ATOM     82  OH  TYR A   4       8.607 -15.226  -7.787  0.00  0.00    -0.506 OA
ATOM     83  HH  TYR A   4       8.678 -14.808  -8.681  0.00  0.00    +0.292 HD
ENDBRANCH  79  82
ENDBRANCH  75  76
ENDBRANCH   1  75
TORSDOF 33
REMARK  Name = ../refined-set-2016/2qbw/2qbw_pocket.pdb
REMARK  239 active torsions:
REMARK  status: ('A' for Active; 'I' for Inactive)
REMARK    1  A    between atoms: _1  and  _5
REMARK    2  A    between atoms: _5  and  _6
REMARK    3  A    between atoms: _5  and  _8
REMARK    4  A    between atoms: _8  and  _9
REMARK    5  A    between atoms: _12  and  _13
REMARK    6  A    between atoms: _18  and  _20
REMARK    7  A    between atoms: _20  and  _21
REMARK    8  A    between atoms: _20  and  _23
REMARK    9  A    between atoms: _23  and  _24
REMARK   10  A    between atoms: _24  and  _25
REMARK   11  A    between atoms: _28  and  _30
REMARK   12  A    between atoms: _30  and  _31
REMARK   13  A    between atoms: _30  and  _33
REMARK   14  A    between atoms: _33  and  _34
REMARK   15  A    between atoms: _37  and  _39
REMARK   16  A    between atoms: _39  and  _40
REMARK   17  A    between atoms: _42  and  _44
REMARK   18  A    between atoms: _44  and  _45
REMARK   19  A    between atoms: _44  and  _47
REMARK   20  A    between atoms: _47  and  _48
REMARK   21  A    between atoms: _54  and  _56
REMARK   22  A    between atoms: _56  and  _57
REMARK   23  A    between atoms: _56  and  _59
REMARK   24  A    between atoms: _59  and  _60
REMARK   25  A    between atoms: _62  and  _64
REMARK   26  A    between atoms: _64  and  _65
REMARK   27  A    between atoms: _64  and  _67
REMARK   28  A    between atoms: _67  and  _68
REMARK   29  A    between atoms: _71  and  _73
REMARK   30  A    between atoms: _73  and  _74
REMARK   31  A    between atoms: _73  and  _76
REMARK   32  A    between atoms: _76  and  _77
REMARK   33  A    between atoms: _79  and  _81
REMARK   34  A    between atoms: _81  and  _82
REMARK   35  A    between atoms: _84  and  _86
REMARK   36  A    between atoms: _86  and  _87
REMARK   37  A    between atoms: _89  and  _91
REMARK   38  A    between atoms: _91  and  _92
REMARK   39  A    between atoms: _94  and  _96
REMARK   40  A    between atoms: _96  and  _97
REMARK   41  A    between atoms: _96  and  _99
REMARK   42  A    between atoms: _99  and  _100
REMARK   43  A    between atoms: _100  and  _101
REMARK   44  A    between atoms: _101  and  _102
REMARK   45  A    between atoms: _111  and  _113
REMARK   46  A    between atoms: _113  and  _114
REMARK   47  A    between atoms: _116  and  _118
REMARK   48  A    between atoms: _118  and  _119
REMARK   49  A    between atoms: _118  and  _121
REMARK   50  A    between atoms: _121  and  _122
REMARK   51  A    between atoms: _128  and  _129
REMARK   52  A    between atoms: _134  and  _136
REMARK   53  A    between atoms: _136  and  _137
REMARK   54  A    between atoms: _136  and  _139
REMARK   55  A    between atoms: _139  and  _140
REMARK   56  A    between atoms: _146  and  _148
REMARK   57  A    between atoms: _148  and  _149
REMARK   58  A    between atoms: _148  and  _151
REMARK   59  A    between atoms: _151  and  _152
REMARK   60  A    between atoms: _155  and  _157
REMARK   61  A    between atoms: _157  and  _158
REMARK   62  A    between atoms: _157  and  _160
REMARK   63  A    between atoms: _160  and  _161
REMARK   64  A    between atoms: _167  and  _169
REMARK   65  A    between atoms: _169  and  _170
REMARK   66  A    between atoms: _169  and  _172
REMARK   67  A    between atoms: _175  and  _177
REMARK   68  A    between atoms: _177  and  _178
REMARK   69  A    between atoms: _177  and  _180
REMARK   70  A    between atoms: _180  and  _181
REMARK   71  A    between atoms: _184  and  _186
REMARK   72  A    between atoms: _186  and  _187
REMARK   73  A    between atoms: _186  and  _189
REMARK   74  A    between atoms: _189  and  _190
REMARK   75  A    between atoms: _190  and  _191
REMARK   76  A    between atoms: _191  and  _192
REMARK   77  A    between atoms: _201  and  _203
REMARK   78  A    between atoms: _203  and  _204
REMARK   79  A    between atoms: _203  and  _206
REMARK   80  A    between atoms: _209  and  _211
REMARK   81  A    between atoms: _211  and  _212
REMARK   82  A    between atoms: _211  and  _214
REMARK   83  A    between atoms: _214  and  _215
REMARK   84  A    between atoms: _215  and  _216
REMARK   85  A    between atoms: _222  and  _223
REMARK   86  A    between atoms: _229  and  _230
REMARK   87  A    between atoms: _235  and  _237
REMARK   88  A    between atoms: _237  and  _238
REMARK   89  A    between atoms: _241  and  _243
REMARK   90  A    between atoms: _243  and  _244
REMARK   91  A    between atoms: _243  and  _246
REMARK   92  A    between atoms: _246  and  _247
REMARK   93  A    between atoms: _250  and  _252
REMARK   94  A    between atoms: _252  and  _253
REMARK   95  A    between atoms: _252  and  _255
REMARK   96  A    between atoms: _255  and  _256
REMARK   97  A    between atoms: _259  and  _261
REMARK   98  A    between atoms: _261  and  _262
REMARK   99  A    between atoms: _261  and  _264
REMARK  100  A    between atoms: _264  and  _265
REMARK  101  A    between atoms: _271  and  _273
REMARK  102  A    between atoms: _273  and  _274
REMARK  103  A    between atoms: _273  and  _276
REMARK  104  A    between atoms: _276  and  _277
REMARK  105  A    between atoms: _282  and  _284
REMARK  106  A    between atoms: _284  and  _285
REMARK  107  A    between atoms: _287  and  _289
REMARK  108  A    between atoms: _289  and  _290
REMARK  109  A    between atoms: _293  and  _295
REMARK  110  A    between atoms: _295  and  _296
REMARK  111  A    between atoms: _295  and  _298
REMARK  112  A    between atoms: _301  and  _303
REMARK  113  A    between atoms: _303  and  _304
REMARK  114  A    between atoms: _303  and  _306
REMARK  115  A    between atoms: _306  and  _307
REMARK  116  A    between atoms: _309  and  _311
REMARK  117  A    between atoms: _311  and  _312
REMARK  118  A    between atoms: _311  and  _314
REMARK  119  A    between atoms: _314  and  _315
REMARK  120  A    between atoms: _318  and  _320
REMARK  121  A    between atoms: _320  and  _321
REMARK  122  A    between atoms: _320  and  _323
REMARK  123  A    between atoms: _323  and  _324
REMARK  124  A    between atoms: _327  and  _329
REMARK  125  A    between atoms: _329  and  _330
REMARK  126  A    between atoms: _329  and  _332
REMARK  127  A    between atoms: _332  and  _333
REMARK  128  A    between atoms: _333  and  _334
REMARK  129  A    between atoms: _334  and  _335
REMARK  130  A    between atoms: _335  and  _336
REMARK  131  A    between atoms: _340  and  _342
REMARK  132  A    between atoms: _342  and  _343
REMARK  133  A    between atoms: _342  and  _345
REMARK  134  A    between atoms: _345  and  _346
REMARK  135  A    between atoms: _349  and  _351
REMARK  136  A    between atoms: _351  and  _352
REMARK  137  A    between atoms: _351  and  _354
REMARK  138  A    between atoms: _354  and  _355
REMARK  139  A    between atoms: _361  and  _363
REMARK  140  A    between atoms: _363  and  _364
REMARK  141  A    between atoms: _363  and  _366
REMARK  142  A    between atoms: _369  and  _371
REMARK  143  A    between atoms: _371  and  _372
REMARK  144  A    between atoms: _371  and  _374
REMARK  145  A    between atoms: _374  and  _375
REMARK  146  A    between atoms: _378  and  _380
REMARK  147  A    between atoms: _380  and  _381
REMARK  148  A    between atoms: _380  and  _383
REMARK  149  A    between atoms: _386  and  _388
REMARK  150  A    between atoms: _388  and  _389
REMARK  151  A    between atoms: _388  and  _391
REMARK  152  A    between atoms: _391  and  _392
REMARK  153  A    between atoms: _392  and  _393
REMARK  154  A    between atoms: _393  and  _394
REMARK  155  A    between atoms: _394  and  _395
REMARK  156  A    between atoms: _399  and  _401
REMARK  157  A    between atoms: _401  and  _402
REMARK  158  A    between atoms: _401  and  _404
REMARK  159  A    between atoms: _404  and  _405
REMARK  160  A    between atoms: _408  and  _410
REMARK  161  A    between atoms: _410  and  _411
REMARK  162  A    between atoms: _410  and  _413
REMARK  163  A    between atoms: _413  and  _414
REMARK  164  A    between atoms: _419  and  _420
REMARK  165  A    between atoms: _422  and  _424
REMARK  166  A    between atoms: _424  and  _425
REMARK  167  A    between atoms: _424  and  _427
REMARK  168  A    between atoms: _427  and  _428
REMARK  169  A    between atoms: _433  and  _434
REMARK  170  A    between atoms: _436  and  _438
REMARK  171  A    between atoms: _438  and  _439
REMARK  172  A    between atoms: _441  and  _443
REMARK  173  A    between atoms: _443  and  _444
REMARK  174  A    between atoms: _443  and  _446
REMARK  175  A    between atoms: _449  and  _451
REMARK  176  A    between atoms: _451  and  _452
REMARK  177  A    between atoms: _451  and  _454
REMARK  178  A    between atoms: _454  and  _455
REMARK  179  A    between atoms: _457  and  _459
REMARK  180  A    between atoms: _459  and  _460
REMARK  181  A    between atoms: _459  and  _462
REMARK  182  A    between atoms: _462  and  _463
REMARK  183  A    between atoms: _468  and  _469
REMARK  184  A    between atoms: _471  and  _473
REMARK  185  A    between atoms: _473  and  _474
REMARK  186  A    between atoms: _473  and  _476
REMARK  187  A    between atoms: _476  and  _477
REMARK  188  A    between atoms: _482  and  _483
REMARK  189  A    between atoms: _485  and  _487
REMARK  190  A    between atoms: _487  and  _488
REMARK  191  A    between atoms: _487  and  _490
REMARK  192  A    between atoms: _490  and  _491
REMARK  193  A    between atoms: _494  and  _496
REMARK  194  A    between atoms: _496  and  _497
REMARK  195  A    between atoms: _496  and  _499
REMARK  196  A    between atoms: _503  and  _504
REMARK  197  A    between atoms: _509  and  _511
REMARK  198  A    between atoms: _511  and  _512
REMARK  199  A    between atoms: _511  and  _514
REMARK  200  A    between atoms: _514  and  _515
REMARK  201  A    between atoms: _520  and  _521
REMARK  202  A    between atoms: _523  and  _525
REMARK  203  A    between atoms: _525  and  _526
REMARK  204  A    between atoms: _525  and  _528
REMARK  205  A    between atoms: _528  and  _529
REMARK  206  A    between atoms: _534  and  _535
REMARK  207  A    between atoms: _537  and  _539
REMARK  208  A    between atoms: _539  and  _540
REMARK  209  A    between atoms: _539  and  _542
REMARK  210  A    between atoms: _542  and  _543
REMARK  211  A    between atoms: _545  and  _547
REMARK  212  A    between atoms: _547  and  _548
REMARK  213  A    between atoms: _547  and  _550
REMARK  214  A    between atoms: _550  and  _551
REMARK  215  A    between atoms: _554  and  _556
REMARK  216  A    between atoms: _556  and  _557
REMARK  217  A    between atoms: _556  and  _559
REMARK  218  A    between atoms: _559  and  _560
REMARK  219  A    between atoms: _565  and  _566
REMARK  220  A    between atoms: _568  and  _570
REMARK  221  A    between atoms: _570  and  _571
REMARK  222  A    between atoms: _570  and  _573
REMARK  223  A    between atoms: _573  and  _574
REMARK  224  A    between atoms: _579  and  _580
REMARK  225  A    between atoms: _582  and  _584
REMARK  226  A    between atoms: _584  and  _585
REMARK  227  A    between atoms: _587  and  _589
REMARK  228  A    between atoms: _589  and  _590
REMARK  229  A    between atoms: _589  and  _592
REMARK  230  A    between atoms: _592  and  _593
REMARK  231  A    between atoms: _595  and  _597
REMARK  232  A    between atoms: _597  and  _598
REMARK  233  A    between atoms: _597  and  _600
REMARK  234  A    between atoms: _600  and  _601
REMARK  235  A    between atoms: _606  and  _608
REMARK  236  A    between atoms: _608  and  _609
REMARK  237  A    between atoms: _608  and  _611
REMARK  238  A    between atoms: _611  and  _612
REMARK  239  A    between atoms: _617  and  _618
REMARK                            x       y       z     vdW  Elec       q    Type
REMARK                         _______ _______ _______ _____ _____    ______ ____
ROOT
ATOM      1  CG  TYR A   1       3.557  -0.021   1.417  0.00  0.00    -0.020 A 
ATOM      2  CD2 TYR A   1       2.928  -1.080   0.752  0.00  0.00    -0.001 A 
ATOM      3  CE2 TYR A   1       2.920  -1.179  -0.637  0.00  0.00    +0.036 A 
ATOM      4  CZ  TYR A   1       3.561  -0.200  -1.392  0.00  0.00    +0.134 A 
ATOM      5  CE1 TYR A   1       4.202   0.856  -0.764  0.00  0.00    +0.036 A 
ATOM      6  CD1 TYR A   1       4.191   0.950   0.638  0.00  0.00    -0.001 A 
ENDROOT
BRANCH   4   7
ATOM      7  OH  TYR A   1       3.544  -0.264  -2.759  0.00  0.00    -0.506 OA
ATOM      8  HH  TYR A   1       3.050  -1.073  -3.044  0.00  0.00    +0.292 HD
ENDBRANCH   4   7
BRANCH   1   9
ATOM      9  CB  TYR A   1       3.556   0.063   2.939  0.00  0.00    +0.051 C 
BRANCH   9  10
ATOM     10  CA  TYR A   1       4.809  -0.500   3.620  0.00  0.00    +0.137 C 
BRANCH  10  11
ATOM     11  N   TYR A   1       4.975  -1.896   3.224  0.00  0.00    -0.239 NA
ATOM     12  H   TYR A   1       4.176  -2.378   2.766  0.00  0.00    +0.142 HD
ENDBRANCH  10  11
BRANCH  10  13
ATOM     13  C   TYR A   1       4.678  -0.430   5.137  0.00  0.00    +0.224 C 
ATOM     14  O   TYR A   1       4.574  -1.458   5.816  0.00  0.00    -0.287 OA
ENDBRANCH  10  13
ENDBRANCH   9  10
ENDBRANCH   1   9
TORSDOF 5
REMARK  Name = ../refined-set-2016/2qbw/2qbw_pocket.pdb
REMARK  239 active torsions:
REMARK  status: ('A' for Active; 'I' for Inactive)
REMARK    1  A    between atoms: _1  and  _5
REMARK    2  A    between atoms: _5  and  _6
REMARK    3  A    between atoms: _5  and  _8
REMARK    4  A    between atoms: _8  and  _9
REMARK    5  A    between atoms: _12  and  _13
REMARK    6  A    between atoms: _18  and  _20
REMARK    7  A    between atoms: _20  and  _21
REMARK    8  A    between atoms: _20  and  _23
REMARK    9  A    between atoms: _23  and  _24
REMARK   10  A    between atoms: _24  and  _25
REMARK   11  A    between atoms: _28  and  _30
REMARK   12  A    between atoms: _30  and  _31
REMARK   13  A    between atoms: _30  and  _33
REMARK   14  A    between atoms: _33  and  _34
REMARK   15  A    between atoms: _37  and  _39
REMARK   16  A    between atoms: _39  and  _40
REMARK   17  A    between atoms: _42  and  _44
REMARK   18  A    between atoms: _44  and  _45
REMARK   19  A    between atoms: _44  and  _47
REMARK   20  A    between atoms: _47  and  _48
REMARK   21  A    between atoms: _54  and  _56
REMARK   22  A    between atoms: _56  and  _57
REMARK   23  A    between atoms: _56  and  _59
REMARK   24  A    between atoms: _59  and  _60
REMARK   25  A    between atoms: _62  and  _64
REMARK   26  A    between atoms: _64  and  _65
REMARK   27  A    between atoms: _64  and  _67
REMARK   28  A    between atoms: _67  and  _68
REMARK   29  A    between atoms: _71  and  _73
REMARK   30  A    between atoms: _73  and  _74
REMARK   31  A    between atoms: _73  and  _76
REMARK   32  A    between atoms: _76  and  _77
REMARK   33  A    between atoms: _79  and  _81
REMARK   34  A    between atoms: _81  and  _82
REMARK   35  A    between atoms: _84  and  _86
REMARK   36  A    between atoms: _86  and  _87
REMARK   37  A    between atoms: _89  and  _91
REMARK   38  A    between atoms: _91  and  _92
REMARK   39  A    between atoms: _94  and  _96
REMARK   40  A    between atoms: _96  and  _97
REMARK   41  A    between atoms: _96  and  _99
REMARK   42  A    between atoms: _99  and  _100
REMARK   43  A    between atoms: _100  and  _101
REMARK   44  A    between atoms: _101  and  _102
REMARK   45  A    between atoms: _111  and  _113
REMARK   46  A    between atoms: _113  and  _114
REMARK   47  A    between atoms: _116  and  _118
REMARK   48  A    between atoms: _118  and  _119
REMARK   49  A    between atoms: _118  and  _121
REMARK   50  A    between atoms: _121  and  _122
REMARK   51  A    between atoms: _128  and  _129
REMARK   52  A    between atoms: _134  and  _136
REMARK   53  A    between atoms: _136  and  _137
REMARK   54  A    between atoms: _136  and  _139
REMARK   55  A    between atoms: _139  and  _140
REMARK   56  A    between atoms: _146  and  _148
REMARK   57  A    between atoms: _148  and  _149
REMARK   58  A    between atoms: _148  and  _151
REMARK   59  A    between atoms: _151  and  _152
REMARK   60  A    between atoms: _155  and  _157
REMARK   61  A    between atoms: _157  and  _158
REMARK   62  A    between atoms: _157  and  _160
REMARK   63  A    between atoms: _160  and  _161
REMARK   64  A    between atoms: _167  and  _169
REMARK   65  A    between atoms: _169  and  _170
REMARK   66  A    between atoms: _169  and  _172
REMARK   67  A    between atoms: _175  and  _177
REMARK   68  A    between atoms: _177  and  _178
REMARK   69  A    between atoms: _177  and  _180
REMARK   70  A    between atoms: _180  and  _181
REMARK   71  A    between atoms: _184  and  _186
REMARK   72  A    between atoms: _186  and  _187
REMARK   73  A    between atoms: _186  and  _189
REMARK   74  A    between atoms: _189  and  _190
REMARK   75  A    between atoms: _190  and  _191
REMARK   76  A    between atoms: _191  and  _192
REMARK   77  A    between atoms: _201  and  _203
REMARK   78  A    between atoms: _203  and  _204
REMARK   79  A    between atoms: _203  and  _206
REMARK   80  A    between atoms: _209  and  _211
REMARK   81  A    between atoms: _211  and  _212
REMARK   82  A    between atoms: _211  and  _214
REMARK   83  A    between atoms: _214  and  _215
REMARK   84  A    between atoms: _215  and  _216
REMARK   85  A    between atoms: _222  and  _223
REMARK   86  A    between atoms: _229  and  _230
REMARK   87  A    between atoms: _235  and  _237
REMARK   88  A    between atoms: _237  and  _238
REMARK   89  A    between atoms: _241  and  _243
REMARK   90  A    between atoms: _243  and  _244
REMARK   91  A    between atoms: _243  and  _246
REMARK   92  A    between atoms: _246  and  _247
REMARK   93  A    between atoms: _250  and  _252
REMARK   94  A    between atoms: _252  and  _253
REMARK   95  A    between atoms: _252  and  _255
REMARK   96  A    between atoms: _255  and  _256
REMARK   97  A    between atoms: _259  and  _261
REMARK   98  A    between atoms: _261  and  _262
REMARK   99  A    between atoms: _261  and  _264
REMARK  100  A    between atoms: _264  and  _265
REMARK  101  A    between atoms: _271  and  _273
REMARK  102  A    between atoms: _273  and  _274
REMARK  103  A    between atoms: _273  and  _276
REMARK  104  A    between atoms: _276  and  _277
REMARK  105  A    between atoms: _282  and  _284
REMARK  106  A    between atoms: _284  and  _285
REMARK  107  A    between atoms: _287  and  _289
REMARK  108  A    between atoms: _289  and  _290
REMARK  109  A    between atoms: _293  and  _295
REMARK  110  A    between atoms: _295  and  _296
REMARK  111  A    between atoms: _295  and  _298
REMARK  112  A    between atoms: _301  and  _303
REMARK  113  A    between atoms: _303  and  _304
REMARK  114  A    between atoms: _303  and  _306
REMARK  115  A    between atoms: _306  and  _307
REMARK  116  A    between atoms: _309  and  _311
REMARK  117  A    between atoms: _311  and  _312
REMARK  118  A    between atoms: _311  and  _314
REMARK  119  A    between atoms: _314  and  _315
REMARK  120  A    between atoms: _318  and  _320
REMARK  121  A    between atoms: _320  and  _321
REMARK  122  A    between atoms: _320  and  _323
REMARK  123  A    between atoms: _323  and  _324
REMARK  124  A    between atoms: _327  and  _329
REMARK  125  A    between atoms: _329  and  _330
REMARK  126  A    between atoms: _329  and  _332
REMARK  127  A    between atoms: _332  and  _333
REMARK  128  A    between atoms: _333  and  _334
REMARK  129  A    between atoms: _334  and  _335
REMARK  130  A    between atoms: _335  and  _336
REMARK  131  A    between atoms: _340  and  _342
REMARK  132  A    between atoms: _342  and  _343
REMARK  133  A    between atoms: _342  and  _345
REMARK  134  A    between atoms: _345  and  _346
REMARK  135  A    between atoms: _349  and  _351
REMARK  136  A    between atoms: _351  and  _352
REMARK  137  A    between atoms: _351  and  _354
REMARK  138  A    between atoms: _354  and  _355
REMARK  139  A    between atoms: _361  and  _363
REMARK  140  A    between atoms: _363  and  _364
REMARK  141  A    between atoms: _363  and  _366
REMARK  142  A    between atoms: _369  and  _371
REMARK  143  A    between atoms: _371  and  _372
REMARK  144  A    between atoms: _371  and  _374
REMARK  145  A    between atoms: _374  and  _375
REMARK  146  A    between atoms: _378  and  _380
REMARK  147  A    between atoms: _380  and  _381
REMARK  148  A    between atoms: _380  and  _383
REMARK  149  A    between atoms: _386  and  _388
REMARK  150  A    between atoms: _388  and  _389
REMARK  151  A    between atoms: _388  and  _391
REMARK  152  A    between atoms: _391  and  _392
REMARK  153  A    between atoms: _392  and  _393
REMARK  154  A    between atoms: _393  and  _394
REMARK  155  A    between atoms: _394  and  _395
REMARK  156  A    between atoms: _399  and  _401
REMARK  157  A    between atoms: _401  and  _402
REMARK  158  A    between atoms: _401  and  _404
REMARK  159  A    between atoms: _404  and  _405
REMARK  160  A    between atoms: _408  and  _410
REMARK  161  A    between atoms: _410  and  _411
REMARK  162  A    between atoms: _410  and  _413
REMARK  163  A    between atoms: _413  and  _414
REMARK  164  A    between atoms: _419  and  _420
REMARK  165  A    between atoms: _422  and  _424
REMARK  166  A    between atoms: _424  and  _425
REMARK  167  A    between atoms: _424  and  _427
REMARK  168  A    between atoms: _427  and  _428
REMARK  169  A    between atoms: _433  and  _434
REMARK  170  A    between atoms: _436  and  _438
REMARK  171  A    between atoms: _438  and  _439
REMARK  172  A    between atoms: _441  and  _443
REMARK  173  A    between atoms: _443  and  _444
REMARK  174  A    between atoms: _443  and  _446
REMARK  175  A    between atoms: _449  and  _451
REMARK  176  A    between atoms: _451  and  _452
REMARK  177  A    between atoms: _451  and  _454
REMARK  178  A    between atoms: _454  and  _455
REMARK  179  A    between atoms: _457  and  _459
REMARK  180  A    between atoms: _459  and  _460
REMARK  181  A    between atoms: _459  and  _462
REMARK  182  A    between atoms: _462  and  _463
REMARK  183  A    between atoms: _468  and  _469
REMARK  184  A    between atoms: _471  and  _473
REMARK  185  A    between atoms: _473  and  _474
REMARK  186  A    between atoms: _473  and  _476
REMARK  187  A    between atoms: _476  and  _477
REMARK  188  A    between atoms: _482  and  _483
REMARK  189  A    between atoms: _485  and  _487
REMARK  190  A    between atoms: _487  and  _488
REMARK  191  A    between atoms: _487  and  _490
REMARK  192  A    between atoms: _490  and  _491
REMARK  193  A    between atoms: _494  and  _496
REMARK  194  A    between atoms: _496  and  _497
REMARK  195  A    between atoms: _496  and  _499
REMARK  196  A    between atoms: _503  and  _504
REMARK  197  A    between atoms: _509  and  _511
REMARK  198  A    between atoms: _511  and  _512
REMARK  199  A    between atoms: _511  and  _514
REMARK  200  A    between atoms: _514  and  _515
REMARK  201  A    between atoms: _520  and  _521
REMARK  202  A    between atoms: _523  and  _525
REMARK  203  A    between atoms: _525  and  _526
REMARK  204  A    between atoms: _525  and  _528
REMARK  205  A    between atoms: _528  and  _529
REMARK  206  A    between atoms: _534  and  _535
REMARK  207  A    between atoms: _537  and  _539
REMARK  208  A    between atoms: _539  and  _540
REMARK  209  A    between atoms: _539  and  _542
REMARK  210  A    between atoms: _542  and  _543
REMARK  211  A    between atoms: _545  and  _547
REMARK  212  A    between atoms: _547  and  _548
REMARK  213  A    between atoms: _547  and  _550
REMARK  214  A    between atoms: _550  and  _551
REMARK  215  A    between atoms: _554  and  _556
REMARK  216  A    between atoms: _556  and  _557
REMARK  217  A    between atoms: _556  and  _559
REMARK  218  A    between atoms: _559  and  _560
REMARK  219  A    between atoms: _565  and  _566
REMARK  220  A    between atoms: _568  and  _570
REMARK  221  A    between atoms: _570  and  _571
REMARK  222  A    between atoms: _570  and  _573
REMARK  223  A    between atoms: _573  and  _574
REMARK  224  A    between atoms: _579  and  _580
REMARK  225  A    between atoms: _582  and  _584
REMARK  226  A    between atoms: _584  and  _585
REMARK  227  A    between atoms: _587  and  _589
REMARK  228  A    between atoms: _589  and  _590
REMARK  229  A    between atoms: _589  and  _592
REMARK  230  A    between atoms: _592  and  _593
REMARK  231  A    between atoms: _595  and  _597
REMARK  232  A    between atoms: _597  and  _598
REMARK  233  A    between atoms: _597  and  _600
REMARK  234  A    between atoms: _600  and  _601
REMARK  235  A    between atoms: _606  and  _608
REMARK  236  A    between atoms: _608  and  _609
REMARK  237  A    between atoms: _608  and  _611
REMARK  238  A    between atoms: _611  and  _612
REMARK  239  A    between atoms: _617  and  _618
REMARK                            x       y       z     vdW  Elec       q    Type
REMARK                         _______ _______ _______ _____ _____    ______ ____
ROOT
ATOM      1  O   HOH     1       1.487   3.373 -14.238  0.00  0.00    +0.000 OA
ENDROOT
TORSDOF 0
REMARK  Name = ../refined-set-2016/2qbw/2qbw_pocket.pdb
REMARK  239 active torsions:
REMARK  status: ('A' for Active; 'I' for Inactive)
REMARK    1  A    between atoms: _1  and  _5
REMARK    2  A    between atoms: _5  and  _6
REMARK    3  A    between atoms: _5  and  _8
REMARK    4  A    between atoms: _8  and  _9
REMARK    5  A    between atoms: _12  and  _13
REMARK    6  A    between atoms: _18  and  _20
REMARK    7  A    between atoms: _20  and  _21
REMARK    8  A    between atoms: _20  and  _23
REMARK    9  A    between atoms: _23  and  _24
REMARK   10  A    between atoms: _24  and  _25
REMARK   11  A    between atoms: _28  and  _30
REMARK   12  A    between atoms: _30  and  _31
REMARK   13  A    between atoms: _30  and  _33
REMARK   14  A    between atoms: _33  and  _34
REMARK   15  A    between atoms: _37  and  _39
REMARK   16  A    between atoms: _39  and  _40
REMARK   17  A    between atoms: _42  and  _44
REMARK   18  A    between atoms: _44  and  _45
REMARK   19  A    between atoms: _44  and  _47
REMARK   20  A    between atoms: _47  and  _48
REMARK   21  A    between atoms: _54  and  _56
REMARK   22  A    between atoms: _56  and  _57
REMARK   23  A    between atoms: _56  and  _59
REMARK   24  A    between atoms: _59  and  _60
REMARK   25  A    between atoms: _62  and  _64
REMARK   26  A    between atoms: _64  and  _65
REMARK   27  A    between atoms: _64  and  _67
REMARK   28  A    between atoms: _67  and  _68
REMARK   29  A    between atoms: _71  and  _73
REMARK   30  A    between atoms: _73  and  _74
REMARK   31  A    between atoms: _73  and  _76
REMARK   32  A    between atoms: _76  and  _77
REMARK   33  A    between atoms: _79  and  _81
REMARK   34  A    between atoms: _81  and  _82
REMARK   35  A    between atoms: _84  and  _86
REMARK   36  A    between atoms: _86  and  _87
REMARK   37  A    between atoms: _89  and  _91
REMARK   38  A    between atoms: _91  and  _92
REMARK   39  A    between atoms: _94  and  _96
REMARK   40  A    between atoms: _96  and  _97
REMARK   41  A    between atoms: _96  and  _99
REMARK   42  A    between atoms: _99  and  _100
REMARK   43  A    between atoms: _100  and  _101
REMARK   44  A    between atoms: _101  and  _102
REMARK   45  A    between atoms: _111  and  _113
REMARK   46  A    between atoms: _113  and  _114
REMARK   47  A    between atoms: _116  and  _118
REMARK   48  A    between atoms: _118  and  _119
REMARK   49  A    between atoms: _118  and  _121
REMARK   50  A    between atoms: _121  and  _122
REMARK   51  A    between atoms: _128  and  _129
REMARK   52  A    between atoms: _134  and  _136
REMARK   53  A    between atoms: _136  and  _137
REMARK   54  A    between atoms: _136  and  _139
REMARK   55  A    between atoms: _139  and  _140
REMARK   56  A    between atoms: _146  and  _148
REMARK   57  A    between atoms: _148  and  _149
REMARK   58  A    between atoms: _148  and  _151
REMARK   59  A    between atoms: _151  and  _152
REMARK   60  A    between atoms: _155  and  _157
REMARK   61  A    between atoms: _157  and  _158
REMARK   62  A    between atoms: _157  and  _160
REMARK   63  A    between atoms: _160  and  _161
REMARK   64  A    between atoms: _167  and  _169
REMARK   65  A    between atoms: _169  and  _170
REMARK   66  A    between atoms: _169  and  _172
REMARK   67  A    between atoms: _175  and  _177
REMARK   68  A    between atoms: _177  and  _178
REMARK   69  A    between atoms: _177  and  _180
REMARK   70  A    between atoms: _180  and  _181
REMARK   71  A    between atoms: _184  and  _186
REMARK   72  A    between atoms: _186  and  _187
REMARK   73  A    between atoms: _186  and  _189
REMARK   74  A    between atoms: _189  and  _190
REMARK   75  A    between atoms: _190  and  _191
REMARK   76  A    between atoms: _191  and  _192
REMARK   77  A    between atoms: _201  and  _203
REMARK   78  A    between atoms: _203  and  _204
REMARK   79  A    between atoms: _203  and  _206
REMARK   80  A    between atoms: _209  and  _211
REMARK   81  A    between atoms: _211  and  _212
REMARK   82  A    between atoms: _211  and  _214
REMARK   83  A    between atoms: _214  and  _215
REMARK   84  A    between atoms: _215  and  _216
REMARK   85  A    between atoms: _222  and  _223
REMARK   86  A    between atoms: _229  and  _230
REMARK   87  A    between atoms: _235  and  _237
REMARK   88  A    between atoms: _237  and  _238
REMARK   89  A    between atoms: _241  and  _243
REMARK   90  A    between atoms: _243  and  _244
REMARK   91  A    between atoms: _243  and  _246
REMARK   92  A    between atoms: _246  and  _247
REMARK   93  A    between atoms: _250  and  _252
REMARK   94  A    between atoms: _252  and  _253
REMARK   95  A    between atoms: _252  and  _255
REMARK   96  A    between atoms: _255  and  _256
REMARK   97  A    between atoms: _259  and  _261
REMARK   98  A    between atoms: _261  and  _262
REMARK   99  A    between atoms: _261  and  _264
REMARK  100  A    between atoms: _264  and  _265
REMARK  101  A    between atoms: _271  and  _273
REMARK  102  A    between atoms: _273  and  _274
REMARK  103  A    between atoms: _273  and  _276
REMARK  104  A    between atoms: _276  and  _277
REMARK  105  A    between atoms: _282  and  _284
REMARK  106  A    between atoms: _284  and  _285
REMARK  107  A    between atoms: _287  and  _289
REMARK  108  A    between atoms: _289  and  _290
REMARK  109  A    between atoms: _293  and  _295
REMARK  110  A    between atoms: _295  and  _296
REMARK  111  A    between atoms: _295  and  _298
REMARK  112  A    between atoms: _301  and  _303
REMARK  113  A    between atoms: _303  and  _304
REMARK  114  A    between atoms: _303  and  _306
REMARK  115  A    between atoms: _306  and  _307
REMARK  116  A    between atoms: _309  and  _311
REMARK  117  A    between atoms: _311  and  _312
REMARK  118  A    between atoms: _311  and  _314
REMARK  119  A    between atoms: _314  and  _315
REMARK  120  A    between atoms: _318  and  _320
REMARK  121  A    between atoms: _320  and  _321
REMARK  122  A    between atoms: _320  and  _323
REMARK  123  A    between atoms: _323  and  _324
REMARK  124  A    between atoms: _327  and  _329
REMARK  125  A    between atoms: _329  and  _330
REMARK  126  A    between atoms: _329  and  _332
REMARK  127  A    between atoms: _332  and  _333
REMARK  128  A    between atoms: _333  and  _334
REMARK  129  A    between atoms: _334  and  _335
REMARK  130  A    between atoms: _335  and  _336
REMARK  131  A    between atoms: _340  and  _342
REMARK  132  A    between atoms: _342  and  _343
REMARK  133  A    between atoms: _342  and  _345
REMARK  134  A    between atoms: _345  and  _346
REMARK  135  A    between atoms: _349  and  _351
REMARK  136  A    between atoms: _351  and  _352
REMARK  137  A    between atoms: _351  and  _354
REMARK  138  A    between atoms: _354  and  _355
REMARK  139  A    between atoms: _361  and  _363
REMARK  140  A    between atoms: _363  and  _364
REMARK  141  A    between atoms: _363  and  _366
REMARK  142  A    between atoms: _369  and  _371
REMARK  143  A    between atoms: _371  and  _372
REMARK  144  A    between atoms: _371  and  _374
REMARK  145  A    between atoms: _374  and  _375
REMARK  146  A    between atoms: _378  and  _380
REMARK  147  A    between atoms: _380  and  _381
REMARK  148  A    between atoms: _380  and  _383
REMARK  149  A    between atoms: _386  and  _388
REMARK  150  A    between atoms: _388  and  _389
REMARK  151  A    between atoms: _388  and  _391
REMARK  152  A    between atoms: _391  and  _392
REMARK  153  A    between atoms: _392  and  _393
REMARK  154  A    between atoms: _393  and  _394
REMARK  155  A    between atoms: _394  and  _395
REMARK  156  A    between atoms: _399  and  _401
REMARK  157  A    between atoms: _401  and  _402
REMARK  158  A    between atoms: _401  and  _404
REMARK  159  A    between atoms: _404  and  _405
REMARK  160  A    between atoms: _408  and  _410
REMARK  161  A    between atoms: _410  and  _411
REMARK  162  A    between atoms: _410  and  _413
REMARK  163  A    between atoms: _413  and  _414
REMARK  164  A    between atoms: _419  and  _420
REMARK  165  A    between atoms: _422  and  _424
REMARK  166  A    between atoms: _424  and  _425
REMARK  167  A    between atoms: _424  and  _427
REMARK  168  A    between atoms: _427  and  _428
REMARK  169  A    between atoms: _433  and  _434
REMARK  170  A    between atoms: _436  and  _438
REMARK  171  A    between atoms: _438  and  _439
REMARK  172  A    between atoms: _441  and  _443
REMARK  173  A    between atoms: _443  and  _444
REMARK  174  A    between atoms: _443  and  _446
REMARK  175  A    between atoms: _449  and  _451
REMARK  176  A    between atoms: _451  and  _452
REMARK  177  A    between atoms: _451  and  _454
REMARK  178  A    between atoms: _454  and  _455
REMARK  179  A    between atoms: _457  and  _459
REMARK  180  A    between atoms: _459  and  _460
REMARK  181  A    between atoms: _459  and  _462
REMARK  182  A    between atoms: _462  and  _463
REMARK  183  A    between atoms: _468  and  _469
REMARK  184  A    between atoms: _471  and  _473
REMARK  185  A    between atoms: _473  and  _474
REMARK  186  A    between atoms: _473  and  _476
REMARK  187  A    between atoms: _476  and  _477
REMARK  188  A    between atoms: _482  and  _483
REMARK  189  A    between atoms: _485  and  _487
REMARK  190  A    between atoms: _487  and  _488
REMARK  191  A    between atoms: _487  and  _490
REMARK  192  A    between atoms: _490  and  _491
REMARK  193  A    between atoms: _494  and  _496
REMARK  194  A    between atoms: _496  and  _497
REMARK  195  A    between atoms: _496  and  _499
REMARK  196  A    between atoms: _503  and  _504
REMARK  197  A    between atoms: _509  and  _511
REMARK  198  A    between atoms: _511  and  _512
REMARK  199  A    between atoms: _511  and  _514
REMARK  200  A    between atoms: _514  and  _515
REMARK  201  A    between atoms: _520  and  _521
REMARK  202  A    between atoms: _523  and  _525
REMARK  203  A    between atoms: _525  and  _526
REMARK  204  A    between atoms: _525  and  _528
REMARK  205  A    between atoms: _528  and  _529
REMARK  206  A    between atoms: _534  and  _535
REMARK  207  A    between atoms: _537  and  _539
REMARK  208  A    between atoms: _539  and  _540
REMARK  209  A    between atoms: _539  and  _542
REMARK  210  A    between atoms: _542  and  _543
REMARK  211  A    between atoms: _545  and  _547
REMARK  212  A    between atoms: _547  and  _548
REMARK  213  A    between atoms: _547  and  _550
REMARK  214  A    between atoms: _550  and  _551
REMARK  215  A    between atoms: _554  and  _556
REMARK  216  A    between atoms: _556  and  _557
REMARK  217  A    between atoms: _556  and  _559
REMARK  218  A    between atoms: _559  and  _560
REMARK  219  A    between atoms: _565  and  _566
REMARK  220  A    between atoms: _568  and  _570
REMARK  221  A    between atoms: _570  and  _571
REMARK  222  A    between atoms: _570  and  _573
REMARK  223  A    between atoms: _573  and  _574
REMARK  224  A    between atoms: _579  and  _580
REMARK  225  A    between atoms: _582  and  _584
REMARK  226  A    between atoms: _584  and  _585
REMARK  227  A    between atoms: _587  and  _589
REMARK  228  A    between atoms: _589  and  _590
REMARK  229  A    between atoms: _589  and  _592
REMARK  230  A    between atoms: _592  and  _593
REMARK  231  A    between atoms: _595  and  _597
REMARK  232  A    between atoms: _597  and  _598
REMARK  233  A    between atoms: _597  and  _600
REMARK  234  A    between atoms: _600  and  _601
REMARK  235  A    between atoms: _606  and  _608
REMARK  236  A    between atoms: _608  and  _609
REMARK  237  A    between atoms: _608  and  _611
REMARK  238  A    between atoms: _611  and  _612
REMARK  239  A    between atoms: _617  and  _618
REMARK                            x       y       z     vdW  Elec       q    Type
REMARK                         _______ _______ _______ _____ _____    ______ ____
ROOT
ATOM      1  O   HOH     1      -2.532  -3.627  -5.654  0.00  0.00    +0.000 OA
ENDROOT
TORSDOF 0
REMARK  Name = ../refined-set-2016/2qbw/2qbw_pocket.pdb
REMARK  239 active torsions:
REMARK  status: ('A' for Active; 'I' for Inactive)
REMARK    1  A    between atoms: _1  and  _5
REMARK    2  A    between atoms: _5  and  _6
REMARK    3  A    between atoms: _5  and  _8
REMARK    4  A    between atoms: _8  and  _9
REMARK    5  A    between atoms: _12  and  _13
REMARK    6  A    between atoms: _18  and  _20
REMARK    7  A    between atoms: _20  and  _21
REMARK    8  A    between atoms: _20  and  _23
REMARK    9  A    between atoms: _23  and  _24
REMARK   10  A    between atoms: _24  and  _25
REMARK   11  A    between atoms: _28  and  _30
REMARK   12  A    between atoms: _30  and  _31
REMARK   13  A    between atoms: _30  and  _33
REMARK   14  A    between atoms: _33  and  _34
REMARK   15  A    between atoms: _37  and  _39
REMARK   16  A    between atoms: _39  and  _40
REMARK   17  A    between atoms: _42  and  _44
REMARK   18  A    between atoms: _44  and  _45
REMARK   19  A    between atoms: _44  and  _47
REMARK   20  A    between atoms: _47  and  _48
REMARK   21  A    between atoms: _54  and  _56
REMARK   22  A    between atoms: _56  and  _57
REMARK   23  A    between atoms: _56  and  _59
REMARK   24  A    between atoms: _59  and  _60
REMARK   25  A    between atoms: _62  and  _64
REMARK   26  A    between atoms: _64  and  _65
REMARK   27  A    between atoms: _64  and  _67
REMARK   28  A    between atoms: _67  and  _68
REMARK   29  A    between atoms: _71  and  _73
REMARK   30  A    between atoms: _73  and  _74
REMARK   31  A    between atoms: _73  and  _76
REMARK   32  A    between atoms: _76  and  _77
REMARK   33  A    between atoms: _79  and  _81
REMARK   34  A    between atoms: _81  and  _82
REMARK   35  A    between atoms: _84  and  _86
REMARK   36  A    between atoms: _86  and  _87
REMARK   37  A    between atoms: _89  and  _91
REMARK   38  A    between atoms: _91  and  _92
REMARK   39  A    between atoms: _94  and  _96
REMARK   40  A    between atoms: _96  and  _97
REMARK   41  A    between atoms: _96  and  _99
REMARK   42  A    between atoms: _99  and  _100
REMARK   43  A    between atoms: _100  and  _101
REMARK   44  A    between atoms: _101  and  _102
REMARK   45  A    between atoms: _111  and  _113
REMARK   46  A    between atoms: _113  and  _114
REMARK   47  A    between atoms: _116  and  _118
REMARK   48  A    between atoms: _118  and  _119
REMARK   49  A    between atoms: _118  and  _121
REMARK   50  A    between atoms: _121  and  _122
REMARK   51  A    between atoms: _128  and  _129
REMARK   52  A    between atoms: _134  and  _136
REMARK   53  A    between atoms: _136  and  _137
REMARK   54  A    between atoms: _136  and  _139
REMARK   55  A    between atoms: _139  and  _140
REMARK   56  A    between atoms: _146  and  _148
REMARK   57  A    between atoms: _148  and  _149
REMARK   58  A    between atoms: _148  and  _151
REMARK   59  A    between atoms: _151  and  _152
REMARK   60  A    between atoms: _155  and  _157
REMARK   61  A    between atoms: _157  and  _158
REMARK   62  A    between atoms: _157  and  _160
REMARK   63  A    between atoms: _160  and  _161
REMARK   64  A    between atoms: _167  and  _169
REMARK   65  A    between atoms: _169  and  _170
REMARK   66  A    between atoms: _169  and  _172
REMARK   67  A    between atoms: _175  and  _177
REMARK   68  A    between atoms: _177  and  _178
REMARK   69  A    between atoms: _177  and  _180
REMARK   70  A    between atoms: _180  and  _181
REMARK   71  A    between atoms: _184  and  _186
REMARK   72  A    between atoms: _186  and  _187
REMARK   73  A    between atoms: _186  and  _189
REMARK   74  A    between atoms: _189  and  _190
REMARK   75  A    between atoms: _190  and  _191
REMARK   76  A    between atoms: _191  and  _192
REMARK   77  A    between atoms: _201  and  _203
REMARK   78  A    between atoms: _203  and  _204
REMARK   79  A    between atoms: _203  and  _206
REMARK   80  A    between atoms: _209  and  _211
REMARK   81  A    between atoms: _211  and  _212
REMARK   82  A    between atoms: _211  and  _214
REMARK   83  A    between atoms: _214  and  _215
REMARK   84  A    between atoms: _215  and  _216
REMARK   85  A    between atoms: _222  and  _223
REMARK   86  A    between atoms: _229  and  _230
REMARK   87  A    between atoms: _235  and  _237
REMARK   88  A    between atoms: _237  and  _238
REMARK   89  A    between atoms: _241  and  _243
REMARK   90  A    between atoms: _243  and  _244
REMARK   91  A    between atoms: _243  and  _246
REMARK   92  A    between atoms: _246  and  _247
REMARK   93  A    between atoms: _250  and  _252
REMARK   94  A    between atoms: _252  and  _253
REMARK   95  A    between atoms: _252  and  _255
REMARK   96  A    between atoms: _255  and  _256
REMARK   97  A    between atoms: _259  and  _261
REMARK   98  A    between atoms: _261  and  _262
REMARK   99  A    between atoms: _261  and  _264
REMARK  100  A    between atoms: _264  and  _265
REMARK  101  A    between atoms: _271  and  _273
REMARK  102  A    between atoms: _273  and  _274
REMARK  103  A    between atoms: _273  and  _276
REMARK  104  A    between atoms: _276  and  _277
REMARK  105  A    between atoms: _282  and  _284
REMARK  106  A    between atoms: _284  and  _285
REMARK  107  A    between atoms: _287  and  _289
REMARK  108  A    between atoms: _289  and  _290
REMARK  109  A    between atoms: _293  and  _295
REMARK  110  A    between atoms: _295  and  _296
REMARK  111  A    between atoms: _295  and  _298
REMARK  112  A    between atoms: _301  and  _303
REMARK  113  A    between atoms: _303  and  _304
REMARK  114  A    between atoms: _303  and  _306
REMARK  115  A    between atoms: _306  and  _307
REMARK  116  A    between atoms: _309  and  _311
REMARK  117  A    between atoms: _311  and  _312
REMARK  118  A    between atoms: _311  and  _314
REMARK  119  A    between atoms: _314  and  _315
REMARK  120  A    between atoms: _318  and  _320
REMARK  121  A    between atoms: _320  and  _321
REMARK  122  A    between atoms: _320  and  _323
REMARK  123  A    between atoms: _323  and  _324
REMARK  124  A    between atoms: _327  and  _329
REMARK  125  A    between atoms: _329  and  _330
REMARK  126  A    between atoms: _329  and  _332
REMARK  127  A    between atoms: _332  and  _333
REMARK  128  A    between atoms: _333  and  _334
REMARK  129  A    between atoms: _334  and  _335
REMARK  130  A    between atoms: _335  and  _336
REMARK  131  A    between atoms: _340  and  _342
REMARK  132  A    between atoms: _342  and  _343
REMARK  133  A    between atoms: _342  and  _345
REMARK  134  A    between atoms: _345  and  _346
REMARK  135  A    between atoms: _349  and  _351
REMARK  136  A    between atoms: _351  and  _352
REMARK  137  A    between atoms: _351  and  _354
REMARK  138  A    between atoms: _354  and  _355
REMARK  139  A    between atoms: _361  and  _363
REMARK  140  A    between atoms: _363  and  _364
REMARK  141  A    between atoms: _363  and  _366
REMARK  142  A    between atoms: _369  and  _371
REMARK  143  A    between atoms: _371  and  _372
REMARK  144  A    between atoms: _371  and  _374
REMARK  145  A    between atoms: _374  and  _375
REMARK  146  A    between atoms: _378  and  _380
REMARK  147  A    between atoms: _380  and  _381
REMARK  148  A    between atoms: _380  and  _383
REMARK  149  A    between atoms: _386  and  _388
REMARK  150  A    between atoms: _388  and  _389
REMARK  151  A    between atoms: _388  and  _391
REMARK  152  A    between atoms: _391  and  _392
REMARK  153  A    between atoms: _392  and  _393
REMARK  154  A    between atoms: _393  and  _394
REMARK  155  A    between atoms: _394  and  _395
REMARK  156  A    between atoms: _399  and  _401
REMARK  157  A    between atoms: _401  and  _402
REMARK  158  A    between atoms: _401  and  _404
REMARK  159  A    between atoms: _404  and  _405
REMARK  160  A    between atoms: _408  and  _410
REMARK  161  A    between atoms: _410  and  _411
REMARK  162  A    between atoms: _410  and  _413
REMARK  163  A    between atoms: _413  and  _414
REMARK  164  A    between atoms: _419  and  _420
REMARK  165  A    between atoms: _422  and  _424
REMARK  166  A    between atoms: _424  and  _425
REMARK  167  A    between atoms: _424  and  _427
REMARK  168  A    between atoms: _427  and  _428
REMARK  169  A    between atoms: _433  and  _434
REMARK  170  A    between atoms: _436  and  _438
REMARK  171  A    between atoms: _438  and  _439
REMARK  172  A    between atoms: _441  and  _443
REMARK  173  A    between atoms: _443  and  _444
REMARK  174  A    between atoms: _443  and  _446
REMARK  175  A    between atoms: _449  and  _451
REMARK  176  A    between atoms: _451  and  _452
REMARK  177  A    between atoms: _451  and  _454
REMARK  178  A    between atoms: _454  and  _455
REMARK  179  A    between atoms: _457  and  _459
REMARK  180  A    between atoms: _459  and  _460
REMARK  181  A    between atoms: _459  and  _462
REMARK  182  A    between atoms: _462  and  _463
REMARK  183  A    between atoms: _468  and  _469
REMARK  184  A    between atoms: _471  and  _473
REMARK  185  A    between atoms: _473  and  _474
REMARK  186  A    between atoms: _473  and  _476
REMARK  187  A    between atoms: _476  and  _477
REMARK  188  A    between atoms: _482  and  _483
REMARK  189  A    between atoms: _485  and  _487
REMARK  190  A    between atoms: _487  and  _488
REMARK  191  A    between atoms: _487  and  _490
REMARK  192  A    between atoms: _490  and  _491
REMARK  193  A    between atoms: _494  and  _496
REMARK  194  A    between atoms: _496  and  _497
REMARK  195  A    between atoms: _496  and  _499
REMARK  196  A    between atoms: _503  and  _504
REMARK  197  A    between atoms: _509  and  _511
REMARK  198  A    between atoms: _511  and  _512
REMARK  199  A    between atoms: _511  and  _514
REMARK  200  A    between atoms: _514  and  _515
REMARK  201  A    between atoms: _520  and  _521
REMARK  202  A    between atoms: _523  and  _525
REMARK  203  A    between atoms: _525  and  _526
REMARK  204  A    between atoms: _525  and  _528
REMARK  205  A    between atoms: _528  and  _529
REMARK  206  A    between atoms: _534  and  _535
REMARK  207  A    between atoms: _537  and  _539
REMARK  208  A    between atoms: _539  and  _540
REMARK  209  A    between atoms: _539  and  _542
REMARK  210  A    between atoms: _542  and  _543
REMARK  211  A    between atoms: _545  and  _547
REMARK  212  A    between atoms: _547  and  _548
REMARK  213  A    between atoms: _547  and  _550
REMARK  214  A    between atoms: _550  and  _551
REMARK  215  A    between atoms: _554  and  _556
REMARK  216  A    between atoms: _556  and  _557
REMARK  217  A    between atoms: _556  and  _559
REMARK  218  A    between atoms: _559  and  _560
REMARK  219  A    between atoms: _565  and  _566
REMARK  220  A    between atoms: _568  and  _570
REMARK  221  A    between atoms: _570  and  _571
REMARK  222  A    between atoms: _570  and  _573
REMARK  223  A    between atoms: _573  and  _574
REMARK  224  A    between atoms: _579  and  _580
REMARK  225  A    between atoms: _582  and  _584
REMARK  226  A    between atoms: _584  and  _585
REMARK  227  A    between atoms: _587  and  _589
REMARK  228  A    between atoms: _589  and  _590
REMARK  229  A    between atoms: _589  and  _592
REMARK  230  A    between atoms: _592  and  _593
REMARK  231  A    between atoms: _595  and  _597
REMARK  232  A    between atoms: _597  and  _598
REMARK  233  A    between atoms: _597  and  _600
REMARK  234  A    between atoms: _600  and  _601
REMARK  235  A    between atoms: _606  and  _608
REMARK  236  A    between atoms: _608  and  _609
REMARK  237  A    between atoms: _608  and  _611
REMARK  238  A    between atoms: _611  and  _612
REMARK  239  A    between atoms: _617  and  _618
REMARK                            x       y       z     vdW  Elec       q    Type
REMARK                         _______ _______ _______ _____ _____    ______ ____
ROOT
ATOM      1  O   HOH     1       8.542 -17.368 -13.946  0.00  0.00    +0.000 OA
ENDROOT
TORSDOF 0
REMARK  Name = ../refined-set-2016/2qbw/2qbw_pocket.pdb
REMARK  239 active torsions:
REMARK  status: ('A' for Active; 'I' for Inactive)
REMARK    1  A    between atoms: _1  and  _5
REMARK    2  A    between atoms: _5  and  _6
REMARK    3  A    between atoms: _5  and  _8
REMARK    4  A    between atoms: _8  and  _9
REMARK    5  A    between atoms: _12  and  _13
REMARK    6  A    between atoms: _18  and  _20
REMARK    7  A    between atoms: _20  and  _21
REMARK    8  A    between atoms: _20  and  _23
REMARK    9  A    between atoms: _23  and  _24
REMARK   10  A    between atoms: _24  and  _25
REMARK   11  A    between atoms: _28  and  _30
REMARK   12  A    between atoms: _30  and  _31
REMARK   13  A    between atoms: _30  and  _33
REMARK   14  A    between atoms: _33  and  _34
REMARK   15  A    between atoms: _37  and  _39
REMARK   16  A    between atoms: _39  and  _40
REMARK   17  A    between atoms: _42  and  _44
REMARK   18  A    between atoms: _44  and  _45
REMARK   19  A    between atoms: _44  and  _47
REMARK   20  A    between atoms: _47  and  _48
REMARK   21  A    between atoms: _54  and  _56
REMARK   22  A    between atoms: _56  and  _57
REMARK   23  A    between atoms: _56  and  _59
REMARK   24  A    between atoms: _59  and  _60
REMARK   25  A    between atoms: _62  and  _64
REMARK   26  A    between atoms: _64  and  _65
REMARK   27  A    between atoms: _64  and  _67
REMARK   28  A    between atoms: _67  and  _68
REMARK   29  A    between atoms: _71  and  _73
REMARK   30  A    between atoms: _73  and  _74
REMARK   31  A    between atoms: _73  and  _76
REMARK   32  A    between atoms: _76  and  _77
REMARK   33  A    between atoms: _79  and  _81
REMARK   34  A    between atoms: _81  and  _82
REMARK   35  A    between atoms: _84  and  _86
REMARK   36  A    between atoms: _86  and  _87
REMARK   37  A    between atoms: _89  and  _91
REMARK   38  A    between atoms: _91  and  _92
REMARK   39  A    between atoms: _94  and  _96
REMARK   40  A    between atoms: _96  and  _97
REMARK   41  A    between atoms: _96  and  _99
REMARK   42  A    between atoms: _99  and  _100
REMARK   43  A    between atoms: _100  and  _101
REMARK   44  A    between atoms: _101  and  _102
REMARK   45  A    between atoms: _111  and  _113
REMARK   46  A    between atoms: _113  and  _114
REMARK   47  A    between atoms: _116  and  _118
REMARK   48  A    between atoms: _118  and  _119
REMARK   49  A    between atoms: _118  and  _121
REMARK   50  A    between atoms: _121  and  _122
REMARK   51  A    between atoms: _128  and  _129
REMARK   52  A    between atoms: _134  and  _136
REMARK   53  A    between atoms: _136  and  _137
REMARK   54  A    between atoms: _136  and  _139
REMARK   55  A    between atoms: _139  and  _140
REMARK   56  A    between atoms: _146  and  _148
REMARK   57  A    between atoms: _148  and  _149
REMARK   58  A    between atoms: _148  and  _151
REMARK   59  A    between atoms: _151  and  _152
REMARK   60  A    between atoms: _155  and  _157
REMARK   61  A    between atoms: _157  and  _158
REMARK   62  A    between atoms: _157  and  _160
REMARK   63  A    between atoms: _160  and  _161
REMARK   64  A    between atoms: _167  and  _169
REMARK   65  A    between atoms: _169  and  _170
REMARK   66  A    between atoms: _169  and  _172
REMARK   67  A    between atoms: _175  and  _177
REMARK   68  A    between atoms: _177  and  _178
REMARK   69  A    between atoms: _177  and  _180
REMARK   70  A    between atoms: _180  and  _181
REMARK   71  A    between atoms: _184  and  _186
REMARK   72  A    between atoms: _186  and  _187
REMARK   73  A    between atoms: _186  and  _189
REMARK   74  A    between atoms: _189  and  _190
REMARK   75  A    between atoms: _190  and  _191
REMARK   76  A    between atoms: _191  and  _192
REMARK   77  A    between atoms: _201  and  _203
REMARK   78  A    between atoms: _203  and  _204
REMARK   79  A    between atoms: _203  and  _206
REMARK   80  A    between atoms: _209  and  _211
REMARK   81  A    between atoms: _211  and  _212
REMARK   82  A    between atoms: _211  and  _214
REMARK   83  A    between atoms: _214  and  _215
REMARK   84  A    between atoms: _215  and  _216
REMARK   85  A    between atoms: _222  and  _223
REMARK   86  A    between atoms: _229  and  _230
REMARK   87  A    between atoms: _235  and  _237
REMARK   88  A    between atoms: _237  and  _238
REMARK   89  A    between atoms: _241  and  _243
REMARK   90  A    between atoms: _243  and  _244
REMARK   91  A    between atoms: _243  and  _246
REMARK   92  A    between atoms: _246  and  _247
REMARK   93  A    between atoms: _250  and  _252
REMARK   94  A    between atoms: _252  and  _253
REMARK   95  A    between atoms: _252  and  _255
REMARK   96  A    between atoms: _255  and  _256
REMARK   97  A    between atoms: _259  and  _261
REMARK   98  A    between atoms: _261  and  _262
REMARK   99  A    between atoms: _261  and  _264
REMARK  100  A    between atoms: _264  and  _265
REMARK  101  A    between atoms: _271  and  _273
REMARK  102  A    between atoms: _273  and  _274
REMARK  103  A    between atoms: _273  and  _276
REMARK  104  A    between atoms: _276  and  _277
REMARK  105  A    between atoms: _282  and  _284
REMARK  106  A    between atoms: _284  and  _285
REMARK  107  A    between atoms: _287  and  _289
REMARK  108  A    between atoms: _289  and  _290
REMARK  109  A    between atoms: _293  and  _295
REMARK  110  A    between atoms: _295  and  _296
REMARK  111  A    between atoms: _295  and  _298
REMARK  112  A    between atoms: _301  and  _303
REMARK  113  A    between atoms: _303  and  _304
REMARK  114  A    between atoms: _303  and  _306
REMARK  115  A    between atoms: _306  and  _307
REMARK  116  A    between atoms: _309  and  _311
REMARK  117  A    between atoms: _311  and  _312
REMARK  118  A    between atoms: _311  and  _314
REMARK  119  A    between atoms: _314  and  _315
REMARK  120  A    between atoms: _318  and  _320
REMARK  121  A    between atoms: _320  and  _321
REMARK  122  A    between atoms: _320  and  _323
REMARK  123  A    between atoms: _323  and  _324
REMARK  124  A    between atoms: _327  and  _329
REMARK  125  A    between atoms: _329  and  _330
REMARK  126  A    between atoms: _329  and  _332
REMARK  127  A    between atoms: _332  and  _333
REMARK  128  A    between atoms: _333  and  _334
REMARK  129  A    between atoms: _334  and  _335
REMARK  130  A    between atoms: _335  and  _336
REMARK  131  A    between atoms: _340  and  _342
REMARK  132  A    between atoms: _342  and  _343
REMARK  133  A    between atoms: _342  and  _345
REMARK  134  A    between atoms: _345  and  _346
REMARK  135  A    between atoms: _349  and  _351
REMARK  136  A    between atoms: _351  and  _352
REMARK  137  A    between atoms: _351  and  _354
REMARK  138  A    between atoms: _354  and  _355
REMARK  139  A    between atoms: _361  and  _363
REMARK  140  A    between atoms: _363  and  _364
REMARK  141  A    between atoms: _363  and  _366
REMARK  142  A    between atoms: _369  and  _371
REMARK  143  A    between atoms: _371  and  _372
REMARK  144  A    between atoms: _371  and  _374
REMARK  145  A    between atoms: _374  and  _375
REMARK  146  A    between atoms: _378  and  _380
REMARK  147  A    between atoms: _380  and  _381
REMARK  148  A    between atoms: _380  and  _383
REMARK  149  A    between atoms: _386  and  _388
REMARK  150  A    between atoms: _388  and  _389
REMARK  151  A    between atoms: _388  and  _391
REMARK  152  A    between atoms: _391  and  _392
REMARK  153  A    between atoms: _392  and  _393
REMARK  154  A    between atoms: _393  and  _394
REMARK  155  A    between atoms: _394  and  _395
REMARK  156  A    between atoms: _399  and  _401
REMARK  157  A    between atoms: _401  and  _402
REMARK  158  A    between atoms: _401  and  _404
REMARK  159  A    between atoms: _404  and  _405
REMARK  160  A    between atoms: _408  and  _410
REMARK  161  A    between atoms: _410  and  _411
REMARK  162  A    between atoms: _410  and  _413
REMARK  163  A    between atoms: _413  and  _414
REMARK  164  A    between atoms: _419  and  _420
REMARK  165  A    between atoms: _422  and  _424
REMARK  166  A    between atoms: _424  and  _425
REMARK  167  A    between atoms: _424  and  _427
REMARK  168  A    between atoms: _427  and  _428
REMARK  169  A    between atoms: _433  and  _434
REMARK  170  A    between atoms: _436  and  _438
REMARK  171  A    between atoms: _438  and  _439
REMARK  172  A    between atoms: _441  and  _443
REMARK  173  A    between atoms: _443  and  _444
REMARK  174  A    between atoms: _443  and  _446
REMARK  175  A    between atoms: _449  and  _451
REMARK  176  A    between atoms: _451  and  _452
REMARK  177  A    between atoms: _451  and  _454
REMARK  178  A    between atoms: _454  and  _455
REMARK  179  A    between atoms: _457  and  _459
REMARK  180  A    between atoms: _459  and  _460
REMARK  181  A    between atoms: _459  and  _462
REMARK  182  A    between atoms: _462  and  _463
REMARK  183  A    between atoms: _468  and  _469
REMARK  184  A    between atoms: _471  and  _473
REMARK  185  A    between atoms: _473  and  _474
REMARK  186  A    between atoms: _473  and  _476
REMARK  187  A    between atoms: _476  and  _477
REMARK  188  A    between atoms: _482  and  _483
REMARK  189  A    between atoms: _485  and  _487
REMARK  190  A    between atoms: _487  and  _488
REMARK  191  A    between atoms: _487  and  _490
REMARK  192  A    between atoms: _490  and  _491
REMARK  193  A    between atoms: _494  and  _496
REMARK  194  A    between atoms: _496  and  _497
REMARK  195  A    between atoms: _496  and  _499
REMARK  196  A    between atoms: _503  and  _504
REMARK  197  A    between atoms: _509  and  _511
REMARK  198  A    between atoms: _511  and  _512
REMARK  199  A    between atoms: _511  and  _514
REMARK  200  A    between atoms: _514  and  _515
REMARK  201  A    between atoms: _520  and  _521
REMARK  202  A    between atoms: _523  and  _525
REMARK  203  A    between atoms: _525  and  _526
REMARK  204  A    between atoms: _525  and  _528
REMARK  205  A    between atoms: _528  and  _529
REMARK  206  A    between atoms: _534  and  _535
REMARK  207  A    between atoms: _537  and  _539
REMARK  208  A    between atoms: _539  and  _540
REMARK  209  A    between atoms: _539  and  _542
REMARK  210  A    between atoms: _542  and  _543
REMARK  211  A    between atoms: _545  and  _547
REMARK  212  A    between atoms: _547  and  _548
REMARK  213  A    between atoms: _547  and  _550
REMARK  214  A    between atoms: _550  and  _551
REMARK  215  A    between atoms: _554  and  _556
REMARK  216  A    between atoms: _556  and  _557
REMARK  217  A    between atoms: _556  and  _559
REMARK  218  A    between atoms: _559  and  _560
REMARK  219  A    between atoms: _565  and  _566
REMARK  220  A    between atoms: _568  and  _570
REMARK  221  A    between atoms: _570  and  _571
REMARK  222  A    between atoms: _570  and  _573
REMARK  223  A    between atoms: _573  and  _574
REMARK  224  A    between atoms: _579  and  _580
REMARK  225  A    between atoms: _582  and  _584
REMARK  226  A    between atoms: _584  and  _585
REMARK  227  A    between atoms: _587  and  _589
REMARK  228  A    between atoms: _589  and  _590
REMARK  229  A    between atoms: _589  and  _592
REMARK  230  A    between atoms: _592  and  _593
REMARK  231  A    between atoms: _595  and  _597
REMARK  232  A    between atoms: _597  and  _598
REMARK  233  A    between atoms: _597  and  _600
REMARK  234  A    between atoms: _600  and  _601
REMARK  235  A    between atoms: _606  and  _608
REMARK  236  A    between atoms: _608  and  _609
REMARK  237  A    between atoms: _608  and  _611
REMARK  238  A    between atoms: _611  and  _612
REMARK  239  A    between atoms: _617  and  _618
REMARK                            x       y       z     vdW  Elec       q    Type
REMARK                         _______ _______ _______ _____ _____    ______ ____
ROOT
ATOM      1  O   HOH     1      -3.314 -10.845  -3.967  0.00  0.00    +0.000 OA
ENDROOT
TORSDOF 0
REMARK  Name = ../refined-set-2016/2qbw/2qbw_pocket.pdb
REMARK  239 active torsions:
REMARK  status: ('A' for Active; 'I' for Inactive)
REMARK    1  A    between atoms: _1  and  _5
REMARK    2  A    between atoms: _5  and  _6
REMARK    3  A    between atoms: _5  and  _8
REMARK    4  A    between atoms: _8  and  _9
REMARK    5  A    between atoms: _12  and  _13
REMARK    6  A    between atoms: _18  and  _20
REMARK    7  A    between atoms: _20  and  _21
REMARK    8  A    between atoms: _20  and  _23
REMARK    9  A    between atoms: _23  and  _24
REMARK   10  A    between atoms: _24  and  _25
REMARK   11  A    between atoms: _28  and  _30
REMARK   12  A    between atoms: _30  and  _31
REMARK   13  A    between atoms: _30  and  _33
REMARK   14  A    between atoms: _33  and  _34
REMARK   15  A    between atoms: _37  and  _39
REMARK   16  A    between atoms: _39  and  _40
REMARK   17  A    between atoms: _42  and  _44
REMARK   18  A    between atoms: _44  and  _45
REMARK   19  A    between atoms: _44  and  _47
REMARK   20  A    between atoms: _47  and  _48
REMARK   21  A    between atoms: _54  and  _56
REMARK   22  A    between atoms: _56  and  _57
REMARK   23  A    between atoms: _56  and  _59
REMARK   24  A    between atoms: _59  and  _60
REMARK   25  A    between atoms: _62  and  _64
REMARK   26  A    between atoms: _64  and  _65
REMARK   27  A    between atoms: _64  and  _67
REMARK   28  A    between atoms: _67  and  _68
REMARK   29  A    between atoms: _71  and  _73
REMARK   30  A    between atoms: _73  and  _74
REMARK   31  A    between atoms: _73  and  _76
REMARK   32  A    between atoms: _76  and  _77
REMARK   33  A    between atoms: _79  and  _81
REMARK   34  A    between atoms: _81  and  _82
REMARK   35  A    between atoms: _84  and  _86
REMARK   36  A    between atoms: _86  and  _87
REMARK   37  A    between atoms: _89  and  _91
REMARK   38  A    between atoms: _91  and  _92
REMARK   39  A    between atoms: _94  and  _96
REMARK   40  A    between atoms: _96  and  _97
REMARK   41  A    between atoms: _96  and  _99
REMARK   42  A    between atoms: _99  and  _100
REMARK   43  A    between atoms: _100  and  _101
REMARK   44  A    between atoms: _101  and  _102
REMARK   45  A    between atoms: _111  and  _113
REMARK   46  A    between atoms: _113  and  _114
REMARK   47  A    between atoms: _116  and  _118
REMARK   48  A    between atoms: _118  and  _119
REMARK   49  A    between atoms: _118  and  _121
REMARK   50  A    between atoms: _121  and  _122
REMARK   51  A    between atoms: _128  and  _129
REMARK   52  A    between atoms: _134  and  _136
REMARK   53  A    between atoms: _136  and  _137
REMARK   54  A    between atoms: _136  and  _139
REMARK   55  A    between atoms: _139  and  _140
REMARK   56  A    between atoms: _146  and  _148
REMARK   57  A    between atoms: _148  and  _149
REMARK   58  A    between atoms: _148  and  _151
REMARK   59  A    between atoms: _151  and  _152
REMARK   60  A    between atoms: _155  and  _157
REMARK   61  A    between atoms: _157  and  _158
REMARK   62  A    between atoms: _157  and  _160
REMARK   63  A    between atoms: _160  and  _161
REMARK   64  A    between atoms: _167  and  _169
REMARK   65  A    between atoms: _169  and  _170
REMARK   66  A    between atoms: _169  and  _172
REMARK   67  A    between atoms: _175  and  _177
REMARK   68  A    between atoms: _177  and  _178
REMARK   69  A    between atoms: _177  and  _180
REMARK   70  A    between atoms: _180  and  _181
REMARK   71  A    between atoms: _184  and  _186
REMARK   72  A    between atoms: _186  and  _187
REMARK   73  A    between atoms: _186  and  _189
REMARK   74  A    between atoms: _189  and  _190
REMARK   75  A    between atoms: _190  and  _191
REMARK   76  A    between atoms: _191  and  _192
REMARK   77  A    between atoms: _201  and  _203
REMARK   78  A    between atoms: _203  and  _204
REMARK   79  A    between atoms: _203  and  _206
REMARK   80  A    between atoms: _209  and  _211
REMARK   81  A    between atoms: _211  and  _212
REMARK   82  A    between atoms: _211  and  _214
REMARK   83  A    between atoms: _214  and  _215
REMARK   84  A    between atoms: _215  and  _216
REMARK   85  A    between atoms: _222  and  _223
REMARK   86  A    between atoms: _229  and  _230
REMARK   87  A    between atoms: _235  and  _237
REMARK   88  A    between atoms: _237  and  _238
REMARK   89  A    between atoms: _241  and  _243
REMARK   90  A    between atoms: _243  and  _244
REMARK   91  A    between atoms: _243  and  _246
REMARK   92  A    between atoms: _246  and  _247
REMARK   93  A    between atoms: _250  and  _252
REMARK   94  A    between atoms: _252  and  _253
REMARK   95  A    between atoms: _252  and  _255
REMARK   96  A    between atoms: _255  and  _256
REMARK   97  A    between atoms: _259  and  _261
REMARK   98  A    between atoms: _261  and  _262
REMARK   99  A    between atoms: _261  and  _264
REMARK  100  A    between atoms: _264  and  _265
REMARK  101  A    between atoms: _271  and  _273
REMARK  102  A    between atoms: _273  and  _274
REMARK  103  A    between atoms: _273  and  _276
REMARK  104  A    between atoms: _276  and  _277
REMARK  105  A    between atoms: _282  and  _284
REMARK  106  A    between atoms: _284  and  _285
REMARK  107  A    between atoms: _287  and  _289
REMARK  108  A    between atoms: _289  and  _290
REMARK  109  A    between atoms: _293  and  _295
REMARK  110  A    between atoms: _295  and  _296
REMARK  111  A    between atoms: _295  and  _298
REMARK  112  A    between atoms: _301  and  _303
REMARK  113  A    between atoms: _303  and  _304
REMARK  114  A    between atoms: _303  and  _306
REMARK  115  A    between atoms: _306  and  _307
REMARK  116  A    between atoms: _309  and  _311
REMARK  117  A    between atoms: _311  and  _312
REMARK  118  A    between atoms: _311  and  _314
REMARK  119  A    between atoms: _314  and  _315
REMARK  120  A    between atoms: _318  and  _320
REMARK  121  A    between atoms: _320  and  _321
REMARK  122  A    between atoms: _320  and  _323
REMARK  123  A    between atoms: _323  and  _324
REMARK  124  A    between atoms: _327  and  _329
REMARK  125  A    between atoms: _329  and  _330
REMARK  126  A    between atoms: _329  and  _332
REMARK  127  A    between atoms: _332  and  _333
REMARK  128  A    between atoms: _333  and  _334
REMARK  129  A    between atoms: _334  and  _335
REMARK  130  A    between atoms: _335  and  _336
REMARK  131  A    between atoms: _340  and  _342
REMARK  132  A    between atoms: _342  and  _343
REMARK  133  A    between atoms: _342  and  _345
REMARK  134  A    between atoms: _345  and  _346
REMARK  135  A    between atoms: _349  and  _351
REMARK  136  A    between atoms: _351  and  _352
REMARK  137  A    between atoms: _351  and  _354
REMARK  138  A    between atoms: _354  and  _355
REMARK  139  A    between atoms: _361  and  _363
REMARK  140  A    between atoms: _363  and  _364
REMARK  141  A    between atoms: _363  and  _366
REMARK  142  A    between atoms: _369  and  _371
REMARK  143  A    between atoms: _371  and  _372
REMARK  144  A    between atoms: _371  and  _374
REMARK  145  A    between atoms: _374  and  _375
REMARK  146  A    between atoms: _378  and  _380
REMARK  147  A    between atoms: _380  and  _381
REMARK  148  A    between atoms: _380  and  _383
REMARK  149  A    between atoms: _386  and  _388
REMARK  150  A    between atoms: _388  and  _389
REMARK  151  A    between atoms: _388  and  _391
REMARK  152  A    between atoms: _391  and  _392
REMARK  153  A    between atoms: _392  and  _393
REMARK  154  A    between atoms: _393  and  _394
REMARK  155  A    between atoms: _394  and  _395
REMARK  156  A    between atoms: _399  and  _401
REMARK  157  A    between atoms: _401  and  _402
REMARK  158  A    between atoms: _401  and  _404
REMARK  159  A    between atoms: _404  and  _405
REMARK  160  A    between atoms: _408  and  _410
REMARK  161  A    between atoms: _410  and  _411
REMARK  162  A    between atoms: _410  and  _413
REMARK  163  A    between atoms: _413  and  _414
REMARK  164  A    between atoms: _419  and  _420
REMARK  165  A    between atoms: _422  and  _424
REMARK  166  A    between atoms: _424  and  _425
REMARK  167  A    between atoms: _424  and  _427
REMARK  168  A    between atoms: _427  and  _428
REMARK  169  A    between atoms: _433  and  _434
REMARK  170  A    between atoms: _436  and  _438
REMARK  171  A    between atoms: _438  and  _439
REMARK  172  A    between atoms: _441  and  _443
REMARK  173  A    between atoms: _443  and  _444
REMARK  174  A    between atoms: _443  and  _446
REMARK  175  A    between atoms: _449  and  _451
REMARK  176  A    between atoms: _451  and  _452
REMARK  177  A    between atoms: _451  and  _454
REMARK  178  A    between atoms: _454  and  _455
REMARK  179  A    between atoms: _457  and  _459
REMARK  180  A    between atoms: _459  and  _460
REMARK  181  A    between atoms: _459  and  _462
REMARK  182  A    between atoms: _462  and  _463
REMARK  183  A    between atoms: _468  and  _469
REMARK  184  A    between atoms: _471  and  _473
REMARK  185  A    between atoms: _473  and  _474
REMARK  186  A    between atoms: _473  and  _476
REMARK  187  A    between atoms: _476  and  _477
REMARK  188  A    between atoms: _482  and  _483
REMARK  189  A    between atoms: _485  and  _487
REMARK  190  A    between atoms: _487  and  _488
REMARK  191  A    between atoms: _487  and  _490
REMARK  192  A    between atoms: _490  and  _491
REMARK  193  A    between atoms: _494  and  _496
REMARK  194  A    between atoms: _496  and  _497
REMARK  195  A    between atoms: _496  and  _499
REMARK  196  A    between atoms: _503  and  _504
REMARK  197  A    between atoms: _509  and  _511
REMARK  198  A    between atoms: _511  and  _512
REMARK  199  A    between atoms: _511  and  _514
REMARK  200  A    between atoms: _514  and  _515
REMARK  201  A    between atoms: _520  and  _521
REMARK  202  A    between atoms: _523  and  _525
REMARK  203  A    between atoms: _525  and  _526
REMARK  204  A    between atoms: _525  and  _528
REMARK  205  A    between atoms: _528  and  _529
REMARK  206  A    between atoms: _534  and  _535
REMARK  207  A    between atoms: _537  and  _539
REMARK  208  A    between atoms: _539  and  _540
REMARK  209  A    between atoms: _539  and  _542
REMARK  210  A    between atoms: _542  and  _543
REMARK  211  A    between atoms: _545  and  _547
REMARK  212  A    between atoms: _547  and  _548
REMARK  213  A    between atoms: _547  and  _550
REMARK  214  A    between atoms: _550  and  _551
REMARK  215  A    between atoms: _554  and  _556
REMARK  216  A    between atoms: _556  and  _557
REMARK  217  A    between atoms: _556  and  _559
REMARK  218  A    between atoms: _559  and  _560
REMARK  219  A    between atoms: _565  and  _566
REMARK  220  A    between atoms: _568  and  _570
REMARK  221  A    between atoms: _570  and  _571
REMARK  222  A    between atoms: _570  and  _573
REMARK  223  A    between atoms: _573  and  _574
REMARK  224  A    between atoms: _579  and  _580
REMARK  225  A    between atoms: _582  and  _584
REMARK  226  A    between atoms: _584  and  _585
REMARK  227  A    between atoms: _587  and  _589
REMARK  228  A    between atoms: _589  and  _590
REMARK  229  A    between atoms: _589  and  _592
REMARK  230  A    between atoms: _592  and  _593
REMARK  231  A    between atoms: _595  and  _597
REMARK  232  A    between atoms: _597  and  _598
REMARK  233  A    between atoms: _597  and  _600
REMARK  234  A    between atoms: _600  and  _601
REMARK  235  A    between atoms: _606  and  _608
REMARK  236  A    between atoms: _608  and  _609
REMARK  237  A    between atoms: _608  and  _611
REMARK  238  A    between atoms: _611  and  _612
REMARK  239  A    between atoms: _617  and  _618
REMARK                            x       y       z     vdW  Elec       q    Type
REMARK                         _______ _______ _______ _____ _____    ______ ____
ROOT
ATOM      1  O   HOH     1       1.931 -18.595 -12.804  0.00  0.00    +0.000 OA
ENDROOT
TORSDOF 0
REMARK  Name = ../refined-set-2016/2qbw/2qbw_pocket.pdb
REMARK  239 active torsions:
REMARK  status: ('A' for Active; 'I' for Inactive)
REMARK    1  A    between atoms: _1  and  _5
REMARK    2  A    between atoms: _5  and  _6
REMARK    3  A    between atoms: _5  and  _8
REMARK    4  A    between atoms: _8  and  _9
REMARK    5  A    between atoms: _12  and  _13
REMARK    6  A    between atoms: _18  and  _20
REMARK    7  A    between atoms: _20  and  _21
REMARK    8  A    between atoms: _20  and  _23
REMARK    9  A    between atoms: _23  and  _24
REMARK   10  A    between atoms: _24  and  _25
REMARK   11  A    between atoms: _28  and  _30
REMARK   12  A    between atoms: _30  and  _31
REMARK   13  A    between atoms: _30  and  _33
REMARK   14  A    between atoms: _33  and  _34
REMARK   15  A    between atoms: _37  and  _39
REMARK   16  A    between atoms: _39  and  _40
REMARK   17  A    between atoms: _42  and  _44
REMARK   18  A    between atoms: _44  and  _45
REMARK   19  A    between atoms: _44  and  _47
REMARK   20  A    between atoms: _47  and  _48
REMARK   21  A    between atoms: _54  and  _56
REMARK   22  A    between atoms: _56  and  _57
REMARK   23  A    between atoms: _56  and  _59
REMARK   24  A    between atoms: _59  and  _60
REMARK   25  A    between atoms: _62  and  _64
REMARK   26  A    between atoms: _64  and  _65
REMARK   27  A    between atoms: _64  and  _67
REMARK   28  A    between atoms: _67  and  _68
REMARK   29  A    between atoms: _71  and  _73
REMARK   30  A    between atoms: _73  and  _74
REMARK   31  A    between atoms: _73  and  _76
REMARK   32  A    between atoms: _76  and  _77
REMARK   33  A    between atoms: _79  and  _81
REMARK   34  A    between atoms: _81  and  _82
REMARK   35  A    between atoms: _84  and  _86
REMARK   36  A    between atoms: _86  and  _87
REMARK   37  A    between atoms: _89  and  _91
REMARK   38  A    between atoms: _91  and  _92
REMARK   39  A    between atoms: _94  and  _96
REMARK   40  A    between atoms: _96  and  _97
REMARK   41  A    between atoms: _96  and  _99
REMARK   42  A    between atoms: _99  and  _100
REMARK   43  A    between atoms: _100  and  _101
REMARK   44  A    between atoms: _101  and  _102
REMARK   45  A    between atoms: _111  and  _113
REMARK   46  A    between atoms: _113  and  _114
REMARK   47  A    between atoms: _116  and  _118
REMARK   48  A    between atoms: _118  and  _119
REMARK   49  A    between atoms: _118  and  _121
REMARK   50  A    between atoms: _121  and  _122
REMARK   51  A    between atoms: _128  and  _129
REMARK   52  A    between atoms: _134  and  _136
REMARK   53  A    between atoms: _136  and  _137
REMARK   54  A    between atoms: _136  and  _139
REMARK   55  A    between atoms: _139  and  _140
REMARK   56  A    between atoms: _146  and  _148
REMARK   57  A    between atoms: _148  and  _149
REMARK   58  A    between atoms: _148  and  _151
REMARK   59  A    between atoms: _151  and  _152
REMARK   60  A    between atoms: _155  and  _157
REMARK   61  A    between atoms: _157  and  _158
REMARK   62  A    between atoms: _157  and  _160
REMARK   63  A    between atoms: _160  and  _161
REMARK   64  A    between atoms: _167  and  _169
REMARK   65  A    between atoms: _169  and  _170
REMARK   66  A    between atoms: _169  and  _172
REMARK   67  A    between atoms: _175  and  _177
REMARK   68  A    between atoms: _177  and  _178
REMARK   69  A    between atoms: _177  and  _180
REMARK   70  A    between atoms: _180  and  _181
REMARK   71  A    between atoms: _184  and  _186
REMARK   72  A    between atoms: _186  and  _187
REMARK   73  A    between atoms: _186  and  _189
REMARK   74  A    between atoms: _189  and  _190
REMARK   75  A    between atoms: _190  and  _191
REMARK   76  A    between atoms: _191  and  _192
REMARK   77  A    between atoms: _201  and  _203
REMARK   78  A    between atoms: _203  and  _204
REMARK   79  A    between atoms: _203  and  _206
REMARK   80  A    between atoms: _209  and  _211
REMARK   81  A    between atoms: _211  and  _212
REMARK   82  A    between atoms: _211  and  _214
REMARK   83  A    between atoms: _214  and  _215
REMARK   84  A    between atoms: _215  and  _216
REMARK   85  A    between atoms: _222  and  _223
REMARK   86  A    between atoms: _229  and  _230
REMARK   87  A    between atoms: _235  and  _237
REMARK   88  A    between atoms: _237  and  _238
REMARK   89  A    between atoms: _241  and  _243
REMARK   90  A    between atoms: _243  and  _244
REMARK   91  A    between atoms: _243  and  _246
REMARK   92  A    between atoms: _246  and  _247
REMARK   93  A    between atoms: _250  and  _252
REMARK   94  A    between atoms: _252  and  _253
REMARK   95  A    between atoms: _252  and  _255
REMARK   96  A    between atoms: _255  and  _256
REMARK   97  A    between atoms: _259  and  _261
REMARK   98  A    between atoms: _261  and  _262
REMARK   99  A    between atoms: _261  and  _264
REMARK  100  A    between atoms: _264  and  _265
REMARK  101  A    between atoms: _271  and  _273
REMARK  102  A    between atoms: _273  and  _274
REMARK  103  A    between atoms: _273  and  _276
REMARK  104  A    between atoms: _276  and  _277
REMARK  105  A    between atoms: _282  and  _284
REMARK  106  A    between atoms: _284  and  _285
REMARK  107  A    between atoms: _287  and  _289
REMARK  108  A    between atoms: _289  and  _290
REMARK  109  A    between atoms: _293  and  _295
REMARK  110  A    between atoms: _295  and  _296
REMARK  111  A    between atoms: _295  and  _298
REMARK  112  A    between atoms: _301  and  _303
REMARK  113  A    between atoms: _303  and  _304
REMARK  114  A    between atoms: _303  and  _306
REMARK  115  A    between atoms: _306  and  _307
REMARK  116  A    between atoms: _309  and  _311
REMARK  117  A    between atoms: _311  and  _312
REMARK  118  A    between atoms: _311  and  _314
REMARK  119  A    between atoms: _314  and  _315
REMARK  120  A    between atoms: _318  and  _320
REMARK  121  A    between atoms: _320  and  _321
REMARK  122  A    between atoms: _320  and  _323
REMARK  123  A    between atoms: _323  and  _324
REMARK  124  A    between atoms: _327  and  _329
REMARK  125  A    between atoms: _329  and  _330
REMARK  126  A    between atoms: _329  and  _332
REMARK  127  A    between atoms: _332  and  _333
REMARK  128  A    between atoms: _333  and  _334
REMARK  129  A    between atoms: _334  and  _335
REMARK  130  A    between atoms: _335  and  _336
REMARK  131  A    between atoms: _340  and  _342
REMARK  132  A    between atoms: _342  and  _343
REMARK  133  A    between atoms: _342  and  _345
REMARK  134  A    between atoms: _345  and  _346
REMARK  135  A    between atoms: _349  and  _351
REMARK  136  A    between atoms: _351  and  _352
REMARK  137  A    between atoms: _351  and  _354
REMARK  138  A    between atoms: _354  and  _355
REMARK  139  A    between atoms: _361  and  _363
REMARK  140  A    between atoms: _363  and  _364
REMARK  141  A    between atoms: _363  and  _366
REMARK  142  A    between atoms: _369  and  _371
REMARK  143  A    between atoms: _371  and  _372
REMARK  144  A    between atoms: _371  and  _374
REMARK  145  A    between atoms: _374  and  _375
REMARK  146  A    between atoms: _378  and  _380
REMARK  147  A    between atoms: _380  and  _381
REMARK  148  A    between atoms: _380  and  _383
REMARK  149  A    between atoms: _386  and  _388
REMARK  150  A    between atoms: _388  and  _389
REMARK  151  A    between atoms: _388  and  _391
REMARK  152  A    between atoms: _391  and  _392
REMARK  153  A    between atoms: _392  and  _393
REMARK  154  A    between atoms: _393  and  _394
REMARK  155  A    between atoms: _394  and  _395
REMARK  156  A    between atoms: _399  and  _401
REMARK  157  A    between atoms: _401  and  _402
REMARK  158  A    between atoms: _401  and  _404
REMARK  159  A    between atoms: _404  and  _405
REMARK  160  A    between atoms: _408  and  _410
REMARK  161  A    between atoms: _410  and  _411
REMARK  162  A    between atoms: _410  and  _413
REMARK  163  A    between atoms: _413  and  _414
REMARK  164  A    between atoms: _419  and  _420
REMARK  165  A    between atoms: _422  and  _424
REMARK  166  A    between atoms: _424  and  _425
REMARK  167  A    between atoms: _424  and  _427
REMARK  168  A    between atoms: _427  and  _428
REMARK  169  A    between atoms: _433  and  _434
REMARK  170  A    between atoms: _436  and  _438
REMARK  171  A    between atoms: _438  and  _439
REMARK  172  A    between atoms: _441  and  _443
REMARK  173  A    between atoms: _443  and  _444
REMARK  174  A    between atoms: _443  and  _446
REMARK  175  A    between atoms: _449  and  _451
REMARK  176  A    between atoms: _451  and  _452
REMARK  177  A    between atoms: _451  and  _454
REMARK  178  A    between atoms: _454  and  _455
REMARK  179  A    between atoms: _457  and  _459
REMARK  180  A    between atoms: _459  and  _460
REMARK  181  A    between atoms: _459  and  _462
REMARK  182  A    between atoms: _462  and  _463
REMARK  183  A    between atoms: _468  and  _469
REMARK  184  A    between atoms: _471  and  _473
REMARK  185  A    between atoms: _473  and  _474
REMARK  186  A    between atoms: _473  and  _476
REMARK  187  A    between atoms: _476  and  _477
REMARK  188  A    between atoms: _482  and  _483
REMARK  189  A    between atoms: _485  and  _487
REMARK  190  A    between atoms: _487  and  _488
REMARK  191  A    between atoms: _487  and  _490
REMARK  192  A    between atoms: _490  and  _491
REMARK  193  A    between atoms: _494  and  _496
REMARK  194  A    between atoms: _496  and  _497
REMARK  195  A    between atoms: _496  and  _499
REMARK  196  A    between atoms: _503  and  _504
REMARK  197  A    between atoms: _509  and  _511
REMARK  198  A    between atoms: _511  and  _512
REMARK  199  A    between atoms: _511  and  _514
REMARK  200  A    between atoms: _514  and  _515
REMARK  201  A    between atoms: _520  and  _521
REMARK  202  A    between atoms: _523  and  _525
REMARK  203  A    between atoms: _525  and  _526
REMARK  204  A    between atoms: _525  and  _528
REMARK  205  A    between atoms: _528  and  _529
REMARK  206  A    between atoms: _534  and  _535
REMARK  207  A    between atoms: _537  and  _539
REMARK  208  A    between atoms: _539  and  _540
REMARK  209  A    between atoms: _539  and  _542
REMARK  210  A    between atoms: _542  and  _543
REMARK  211  A    between atoms: _545  and  _547
REMARK  212  A    between atoms: _547  and  _548
REMARK  213  A    between atoms: _547  and  _550
REMARK  214  A    between atoms: _550  and  _551
REMARK  215  A    between atoms: _554  and  _556
REMARK  216  A    between atoms: _556  and  _557
REMARK  217  A    between atoms: _556  and  _559
REMARK  218  A    between atoms: _559  and  _560
REMARK  219  A    between atoms: _565  and  _566
REMARK  220  A    between atoms: _568  and  _570
REMARK  221  A    between atoms: _570  and  _571
REMARK  222  A    between atoms: _570  and  _573
REMARK  223  A    between atoms: _573  and  _574
REMARK  224  A    between atoms: _579  and  _580
REMARK  225  A    between atoms: _582  and  _584
REMARK  226  A    between atoms: _584  and  _585
REMARK  227  A    between atoms: _587  and  _589
REMARK  228  A    between atoms: _589  and  _590
REMARK  229  A    between atoms: _589  and  _592
REMARK  230  A    between atoms: _592  and  _593
REMARK  231  A    between atoms: _595  and  _597
REMARK  232  A    between atoms: _597  and  _598
REMARK  233  A    between atoms: _597  and  _600
REMARK  234  A    between atoms: _600  and  _601
REMARK  235  A    between atoms: _606  and  _608
REMARK  236  A    between atoms: _608  and  _609
REMARK  237  A    between atoms: _608  and  _611
REMARK  238  A    between atoms: _611  and  _612
REMARK  239  A    between atoms: _617  and  _618
REMARK                            x       y       z     vdW  Elec       q    Type
REMARK                         _______ _______ _______ _____ _____    ______ ____
ROOT
ATOM      1  O   HOH     1       0.027   1.261  -2.381  0.00  0.00    +0.000 OA
ENDROOT
TORSDOF 0
REMARK  Name = ../refined-set-2016/2qbw/2qbw_pocket.pdb
REMARK  239 active torsions:
REMARK  status: ('A' for Active; 'I' for Inactive)
REMARK    1  A    between atoms: _1  and  _5
REMARK    2  A    between atoms: _5  and  _6
REMARK    3  A    between atoms: _5  and  _8
REMARK    4  A    between atoms: _8  and  _9
REMARK    5  A    between atoms: _12  and  _13
REMARK    6  A    between atoms: _18  and  _20
REMARK    7  A    between atoms: _20  and  _21
REMARK    8  A    between atoms: _20  and  _23
REMARK    9  A    between atoms: _23  and  _24
REMARK   10  A    between atoms: _24  and  _25
REMARK   11  A    between atoms: _28  and  _30
REMARK   12  A    between atoms: _30  and  _31
REMARK   13  A    between atoms: _30  and  _33
REMARK   14  A    between atoms: _33  and  _34
REMARK   15  A    between atoms: _37  and  _39
REMARK   16  A    between atoms: _39  and  _40
REMARK   17  A    between atoms: _42  and  _44
REMARK   18  A    between atoms: _44  and  _45
REMARK   19  A    between atoms: _44  and  _47
REMARK   20  A    between atoms: _47  and  _48
REMARK   21  A    between atoms: _54  and  _56
REMARK   22  A    between atoms: _56  and  _57
REMARK   23  A    between atoms: _56  and  _59
REMARK   24  A    between atoms: _59  and  _60
REMARK   25  A    between atoms: _62  and  _64
REMARK   26  A    between atoms: _64  and  _65
REMARK   27  A    between atoms: _64  and  _67
REMARK   28  A    between atoms: _67  and  _68
REMARK   29  A    between atoms: _71  and  _73
REMARK   30  A    between atoms: _73  and  _74
REMARK   31  A    between atoms: _73  and  _76
REMARK   32  A    between atoms: _76  and  _77
REMARK   33  A    between atoms: _79  and  _81
REMARK   34  A    between atoms: _81  and  _82
REMARK   35  A    between atoms: _84  and  _86
REMARK   36  A    between atoms: _86  and  _87
REMARK   37  A    between atoms: _89  and  _91
REMARK   38  A    between atoms: _91  and  _92
REMARK   39  A    between atoms: _94  and  _96
REMARK   40  A    between atoms: _96  and  _97
REMARK   41  A    between atoms: _96  and  _99
REMARK   42  A    between atoms: _99  and  _100
REMARK   43  A    between atoms: _100  and  _101
REMARK   44  A    between atoms: _101  and  _102
REMARK   45  A    between atoms: _111  and  _113
REMARK   46  A    between atoms: _113  and  _114
REMARK   47  A    between atoms: _116  and  _118
REMARK   48  A    between atoms: _118  and  _119
REMARK   49  A    between atoms: _118  and  _121
REMARK   50  A    between atoms: _121  and  _122
REMARK   51  A    between atoms: _128  and  _129
REMARK   52  A    between atoms: _134  and  _136
REMARK   53  A    between atoms: _136  and  _137
REMARK   54  A    between atoms: _136  and  _139
REMARK   55  A    between atoms: _139  and  _140
REMARK   56  A    between atoms: _146  and  _148
REMARK   57  A    between atoms: _148  and  _149
REMARK   58  A    between atoms: _148  and  _151
REMARK   59  A    between atoms: _151  and  _152
REMARK   60  A    between atoms: _155  and  _157
REMARK   61  A    between atoms: _157  and  _158
REMARK   62  A    between atoms: _157  and  _160
REMARK   63  A    between atoms: _160  and  _161
REMARK   64  A    between atoms: _167  and  _169
REMARK   65  A    between atoms: _169  and  _170
REMARK   66  A    between atoms: _169  and  _172
REMARK   67  A    between atoms: _175  and  _177
REMARK   68  A    between atoms: _177  and  _178
REMARK   69  A    between atoms: _177  and  _180
REMARK   70  A    between atoms: _180  and  _181
REMARK   71  A    between atoms: _184  and  _186
REMARK   72  A    between atoms: _186  and  _187
REMARK   73  A    between atoms: _186  and  _189
REMARK   74  A    between atoms: _189  and  _190
REMARK   75  A    between atoms: _190  and  _191
REMARK   76  A    between atoms: _191  and  _192
REMARK   77  A    between atoms: _201  and  _203
REMARK   78  A    between atoms: _203  and  _204
REMARK   79  A    between atoms: _203  and  _206
REMARK   80  A    between atoms: _209  and  _211
REMARK   81  A    between atoms: _211  and  _212
REMARK   82  A    between atoms: _211  and  _214
REMARK   83  A    between atoms: _214  and  _215
REMARK   84  A    between atoms: _215  and  _216
REMARK   85  A    between atoms: _222  and  _223
REMARK   86  A    between atoms: _229  and  _230
REMARK   87  A    between atoms: _235  and  _237
REMARK   88  A    between atoms: _237  and  _238
REMARK   89  A    between atoms: _241  and  _243
REMARK   90  A    between atoms: _243  and  _244
REMARK   91  A    between atoms: _243  and  _246
REMARK   92  A    between atoms: _246  and  _247
REMARK   93  A    between atoms: _250  and  _252
REMARK   94  A    between atoms: _252  and  _253
REMARK   95  A    between atoms: _252  and  _255
REMARK   96  A    between atoms: _255  and  _256
REMARK   97  A    between atoms: _259  and  _261
REMARK   98  A    between atoms: _261  and  _262
REMARK   99  A    between atoms: _261  and  _264
REMARK  100  A    between atoms: _264  and  _265
REMARK  101  A    between atoms: _271  and  _273
REMARK  102  A    between atoms: _273  and  _274
REMARK  103  A    between atoms: _273  and  _276
REMARK  104  A    between atoms: _276  and  _277
REMARK  105  A    between atoms: _282  and  _284
REMARK  106  A    between atoms: _284  and  _285
REMARK  107  A    between atoms: _287  and  _289
REMARK  108  A    between atoms: _289  and  _290
REMARK  109  A    between atoms: _293  and  _295
REMARK  110  A    between atoms: _295  and  _296
REMARK  111  A    between atoms: _295  and  _298
REMARK  112  A    between atoms: _301  and  _303
REMARK  113  A    between atoms: _303  and  _304
REMARK  114  A    between atoms: _303  and  _306
REMARK  115  A    between atoms: _306  and  _307
REMARK  116  A    between atoms: _309  and  _311
REMARK  117  A    between atoms: _311  and  _312
REMARK  118  A    between atoms: _311  and  _314
REMARK  119  A    between atoms: _314  and  _315
REMARK  120  A    between atoms: _318  and  _320
REMARK  121  A    between atoms: _320  and  _321
REMARK  122  A    between atoms: _320  and  _323
REMARK  123  A    between atoms: _323  and  _324
REMARK  124  A    between atoms: _327  and  _329
REMARK  125  A    between atoms: _329  and  _330
REMARK  126  A    between atoms: _329  and  _332
REMARK  127  A    between atoms: _332  and  _333
REMARK  128  A    between atoms: _333  and  _334
REMARK  129  A    between atoms: _334  and  _335
REMARK  130  A    between atoms: _335  and  _336
REMARK  131  A    between atoms: _340  and  _342
REMARK  132  A    between atoms: _342  and  _343
REMARK  133  A    between atoms: _342  and  _345
REMARK  134  A    between atoms: _345  and  _346
REMARK  135  A    between atoms: _349  and  _351
REMARK  136  A    between atoms: _351  and  _352
REMARK  137  A    between atoms: _351  and  _354
REMARK  138  A    between atoms: _354  and  _355
REMARK  139  A    between atoms: _361  and  _363
REMARK  140  A    between atoms: _363  and  _364
REMARK  141  A    between atoms: _363  and  _366
REMARK  142  A    between atoms: _369  and  _371
REMARK  143  A    between atoms: _371  and  _372
REMARK  144  A    between atoms: _371  and  _374
REMARK  145  A    between atoms: _374  and  _375
REMARK  146  A    between atoms: _378  and  _380
REMARK  147  A    between atoms: _380  and  _381
REMARK  148  A    between atoms: _380  and  _383
REMARK  149  A    between atoms: _386  and  _388
REMARK  150  A    between atoms: _388  and  _389
REMARK  151  A    between atoms: _388  and  _391
REMARK  152  A    between atoms: _391  and  _392
REMARK  153  A    between atoms: _392  and  _393
REMARK  154  A    between atoms: _393  and  _394
REMARK  155  A    between atoms: _394  and  _395
REMARK  156  A    between atoms: _399  and  _401
REMARK  157  A    between atoms: _401  and  _402
REMARK  158  A    between atoms: _401  and  _404
REMARK  159  A    between atoms: _404  and  _405
REMARK  160  A    between atoms: _408  and  _410
REMARK  161  A    between atoms: _410  and  _411
REMARK  162  A    between atoms: _410  and  _413
REMARK  163  A    between atoms: _413  and  _414
REMARK  164  A    between atoms: _419  and  _420
REMARK  165  A    between atoms: _422  and  _424
REMARK  166  A    between atoms: _424  and  _425
REMARK  167  A    between atoms: _424  and  _427
REMARK  168  A    between atoms: _427  and  _428
REMARK  169  A    between atoms: _433  and  _434
REMARK  170  A    between atoms: _436  and  _438
REMARK  171  A    between atoms: _438  and  _439
REMARK  172  A    between atoms: _441  and  _443
REMARK  173  A    between atoms: _443  and  _444
REMARK  174  A    between atoms: _443  and  _446
REMARK  175  A    between atoms: _449  and  _451
REMARK  176  A    between atoms: _451  and  _452
REMARK  177  A    between atoms: _451  and  _454
REMARK  178  A    between atoms: _454  and  _455
REMARK  179  A    between atoms: _457  and  _459
REMARK  180  A    between atoms: _459  and  _460
REMARK  181  A    between atoms: _459  and  _462
REMARK  182  A    between atoms: _462  and  _463
REMARK  183  A    between atoms: _468  and  _469
REMARK  184  A    between atoms: _471  and  _473
REMARK  185  A    between atoms: _473  and  _474
REMARK  186  A    between atoms: _473  and  _476
REMARK  187  A    between atoms: _476  and  _477
REMARK  188  A    between atoms: _482  and  _483
REMARK  189  A    between atoms: _485  and  _487
REMARK  190  A    between atoms: _487  and  _488
REMARK  191  A    between atoms: _487  and  _490
REMARK  192  A    between atoms: _490  and  _491
REMARK  193  A    between atoms: _494  and  _496
REMARK  194  A    between atoms: _496  and  _497
REMARK  195  A    between atoms: _496  and  _499
REMARK  196  A    between atoms: _503  and  _504
REMARK  197  A    between atoms: _509  and  _511
REMARK  198  A    between atoms: _511  and  _512
REMARK  199  A    between atoms: _511  and  _514
REMARK  200  A    between atoms: _514  and  _515
REMARK  201  A    between atoms: _520  and  _521
REMARK  202  A    between atoms: _523  and  _525
REMARK  203  A    between atoms: _525  and  _526
REMARK  204  A    between atoms: _525  and  _528
REMARK  205  A    between atoms: _528  and  _529
REMARK  206  A    between atoms: _534  and  _535
REMARK  207  A    between atoms: _537  and  _539
REMARK  208  A    between atoms: _539  and  _540
REMARK  209  A    between atoms: _539  and  _542
REMARK  210  A    between atoms: _542  and  _543
REMARK  211  A    between atoms: _545  and  _547
REMARK  212  A    between atoms: _547  and  _548
REMARK  213  A    between atoms: _547  and  _550
REMARK  214  A    between atoms: _550  and  _551
REMARK  215  A    between atoms: _554  and  _556
REMARK  216  A    between atoms: _556  and  _557
REMARK  217  A    between atoms: _556  and  _559
REMARK  218  A    between atoms: _559  and  _560
REMARK  219  A    between atoms: _565  and  _566
REMARK  220  A    between atoms: _568  and  _570
REMARK  221  A    between atoms: _570  and  _571
REMARK  222  A    between atoms: _570  and  _573
REMARK  223  A    between atoms: _573  and  _574
REMARK  224  A    between atoms: _579  and  _580
REMARK  225  A    between atoms: _582  and  _584
REMARK  226  A    between atoms: _584  and  _585
REMARK  227  A    between atoms: _587  and  _589
REMARK  228  A    between atoms: _589  and  _590
REMARK  229  A    between atoms: _589  and  _592
REMARK  230  A    between atoms: _592  and  _593
REMARK  231  A    between atoms: _595  and  _597
REMARK  232  A    between atoms: _597  and  _598
REMARK  233  A    between atoms: _597  and  _600
REMARK  234  A    between atoms: _600  and  _601
REMARK  235  A    between atoms: _606  and  _608
REMARK  236  A    between atoms: _608  and  _609
REMARK  237  A    between atoms: _608  and  _611
REMARK  238  A    between atoms: _611  and  _612
REMARK  239  A    between atoms: _617  and  _618
REMARK                            x       y       z     vdW  Elec       q    Type
REMARK                         _______ _______ _______ _____ _____    ______ ____
ROOT
ATOM      1  O   HOH     1      -3.482  -3.339 -15.904  0.00  0.00    +0.000 OA
ENDROOT
TORSDOF 0
REMARK  Name = ../refined-set-2016/2qbw/2qbw_pocket.pdb
REMARK  239 active torsions:
REMARK  status: ('A' for Active; 'I' for Inactive)
REMARK    1  A    between atoms: _1  and  _5
REMARK    2  A    between atoms: _5  and  _6
REMARK    3  A    between atoms: _5  and  _8
REMARK    4  A    between atoms: _8  and  _9
REMARK    5  A    between atoms: _12  and  _13
REMARK    6  A    between atoms: _18  and  _20
REMARK    7  A    between atoms: _20  and  _21
REMARK    8  A    between atoms: _20  and  _23
REMARK    9  A    between atoms: _23  and  _24
REMARK   10  A    between atoms: _24  and  _25
REMARK   11  A    between atoms: _28  and  _30
REMARK   12  A    between atoms: _30  and  _31
REMARK   13  A    between atoms: _30  and  _33
REMARK   14  A    between atoms: _33  and  _34
REMARK   15  A    between atoms: _37  and  _39
REMARK   16  A    between atoms: _39  and  _40
REMARK   17  A    between atoms: _42  and  _44
REMARK   18  A    between atoms: _44  and  _45
REMARK   19  A    between atoms: _44  and  _47
REMARK   20  A    between atoms: _47  and  _48
REMARK   21  A    between atoms: _54  and  _56
REMARK   22  A    between atoms: _56  and  _57
REMARK   23  A    between atoms: _56  and  _59
REMARK   24  A    between atoms: _59  and  _60
REMARK   25  A    between atoms: _62  and  _64
REMARK   26  A    between atoms: _64  and  _65
REMARK   27  A    between atoms: _64  and  _67
REMARK   28  A    between atoms: _67  and  _68
REMARK   29  A    between atoms: _71  and  _73
REMARK   30  A    between atoms: _73  and  _74
REMARK   31  A    between atoms: _73  and  _76
REMARK   32  A    between atoms: _76  and  _77
REMARK   33  A    between atoms: _79  and  _81
REMARK   34  A    between atoms: _81  and  _82
REMARK   35  A    between atoms: _84  and  _86
REMARK   36  A    between atoms: _86  and  _87
REMARK   37  A    between atoms: _89  and  _91
REMARK   38  A    between atoms: _91  and  _92
REMARK   39  A    between atoms: _94  and  _96
REMARK   40  A    between atoms: _96  and  _97
REMARK   41  A    between atoms: _96  and  _99
REMARK   42  A    between atoms: _99  and  _100
REMARK   43  A    between atoms: _100  and  _101
REMARK   44  A    between atoms: _101  and  _102
REMARK   45  A    between atoms: _111  and  _113
REMARK   46  A    between atoms: _113  and  _114
REMARK   47  A    between atoms: _116  and  _118
REMARK   48  A    between atoms: _118  and  _119
REMARK   49  A    between atoms: _118  and  _121
REMARK   50  A    between atoms: _121  and  _122
REMARK   51  A    between atoms: _128  and  _129
REMARK   52  A    between atoms: _134  and  _136
REMARK   53  A    between atoms: _136  and  _137
REMARK   54  A    between atoms: _136  and  _139
REMARK   55  A    between atoms: _139  and  _140
REMARK   56  A    between atoms: _146  and  _148
REMARK   57  A    between atoms: _148  and  _149
REMARK   58  A    between atoms: _148  and  _151
REMARK   59  A    between atoms: _151  and  _152
REMARK   60  A    between atoms: _155  and  _157
REMARK   61  A    between atoms: _157  and  _158
REMARK   62  A    between atoms: _157  and  _160
REMARK   63  A    between atoms: _160  and  _161
REMARK   64  A    between atoms: _167  and  _169
REMARK   65  A    between atoms: _169  and  _170
REMARK   66  A    between atoms: _169  and  _172
REMARK   67  A    between atoms: _175  and  _177
REMARK   68  A    between atoms: _177  and  _178
REMARK   69  A    between atoms: _177  and  _180
REMARK   70  A    between atoms: _180  and  _181
REMARK   71  A    between atoms: _184  and  _186
REMARK   72  A    between atoms: _186  and  _187
REMARK   73  A    between atoms: _186  and  _189
REMARK   74  A    between atoms: _189  and  _190
REMARK   75  A    between atoms: _190  and  _191
REMARK   76  A    between atoms: _191  and  _192
REMARK   77  A    between atoms: _201  and  _203
REMARK   78  A    between atoms: _203  and  _204
REMARK   79  A    between atoms: _203  and  _206
REMARK   80  A    between atoms: _209  and  _211
REMARK   81  A    between atoms: _211  and  _212
REMARK   82  A    between atoms: _211  and  _214
REMARK   83  A    between atoms: _214  and  _215
REMARK   84  A    between atoms: _215  and  _216
REMARK   85  A    between atoms: _222  and  _223
REMARK   86  A    between atoms: _229  and  _230
REMARK   87  A    between atoms: _235  and  _237
REMARK   88  A    between atoms: _237  and  _238
REMARK   89  A    between atoms: _241  and  _243
REMARK   90  A    between atoms: _243  and  _244
REMARK   91  A    between atoms: _243  and  _246
REMARK   92  A    between atoms: _246  and  _247
REMARK   93  A    between atoms: _250  and  _252
REMARK   94  A    between atoms: _252  and  _253
REMARK   95  A    between atoms: _252  and  _255
REMARK   96  A    between atoms: _255  and  _256
REMARK   97  A    between atoms: _259  and  _261
REMARK   98  A    between atoms: _261  and  _262
REMARK   99  A    between atoms: _261  and  _264
REMARK  100  A    between atoms: _264  and  _265
REMARK  101  A    between atoms: _271  and  _273
REMARK  102  A    between atoms: _273  and  _274
REMARK  103  A    between atoms: _273  and  _276
REMARK  104  A    between atoms: _276  and  _277
REMARK  105  A    between atoms: _282  and  _284
REMARK  106  A    between atoms: _284  and  _285
REMARK  107  A    between atoms: _287  and  _289
REMARK  108  A    between atoms: _289  and  _290
REMARK  109  A    between atoms: _293  and  _295
REMARK  110  A    between atoms: _295  and  _296
REMARK  111  A    between atoms: _295  and  _298
REMARK  112  A    between atoms: _301  and  _303
REMARK  113  A    between atoms: _303  and  _304
REMARK  114  A    between atoms: _303  and  _306
REMARK  115  A    between atoms: _306  and  _307
REMARK  116  A    between atoms: _309  and  _311
REMARK  117  A    between atoms: _311  and  _312
REMARK  118  A    between atoms: _311  and  _314
REMARK  119  A    between atoms: _314  and  _315
REMARK  120  A    between atoms: _318  and  _320
REMARK  121  A    between atoms: _320  and  _321
REMARK  122  A    between atoms: _320  and  _323
REMARK  123  A    between atoms: _323  and  _324
REMARK  124  A    between atoms: _327  and  _329
REMARK  125  A    between atoms: _329  and  _330
REMARK  126  A    between atoms: _329  and  _332
REMARK  127  A    between atoms: _332  and  _333
REMARK  128  A    between atoms: _333  and  _334
REMARK  129  A    between atoms: _334  and  _335
REMARK  130  A    between atoms: _335  and  _336
REMARK  131  A    between atoms: _340  and  _342
REMARK  132  A    between atoms: _342  and  _343
REMARK  133  A    between atoms: _342  and  _345
REMARK  134  A    between atoms: _345  and  _346
REMARK  135  A    between atoms: _349  and  _351
REMARK  136  A    between atoms: _351  and  _352
REMARK  137  A    between atoms: _351  and  _354
REMARK  138  A    between atoms: _354  and  _355
REMARK  139  A    between atoms: _361  and  _363
REMARK  140  A    between atoms: _363  and  _364
REMARK  141  A    between atoms: _363  and  _366
REMARK  142  A    between atoms: _369  and  _371
REMARK  143  A    between atoms: _371  and  _372
REMARK  144  A    between atoms: _371  and  _374
REMARK  145  A    between atoms: _374  and  _375
REMARK  146  A    between atoms: _378  and  _380
REMARK  147  A    between atoms: _380  and  _381
REMARK  148  A    between atoms: _380  and  _383
REMARK  149  A    between atoms: _386  and  _388
REMARK  150  A    between atoms: _388  and  _389
REMARK  151  A    between atoms: _388  and  _391
REMARK  152  A    between atoms: _391  and  _392
REMARK  153  A    between atoms: _392  and  _393
REMARK  154  A    between atoms: _393  and  _394
REMARK  155  A    between atoms: _394  and  _395
REMARK  156  A    between atoms: _399  and  _401
REMARK  157  A    between atoms: _401  and  _402
REMARK  158  A    between atoms: _401  and  _404
REMARK  159  A    between atoms: _404  and  _405
REMARK  160  A    between atoms: _408  and  _410
REMARK  161  A    between atoms: _410  and  _411
REMARK  162  A    between atoms: _410  and  _413
REMARK  163  A    between atoms: _413  and  _414
REMARK  164  A    between atoms: _419  and  _420
REMARK  165  A    between atoms: _422  and  _424
REMARK  166  A    between atoms: _424  and  _425
REMARK  167  A    between atoms: _424  and  _427
REMARK  168  A    between atoms: _427  and  _428
REMARK  169  A    between atoms: _433  and  _434
REMARK  170  A    between atoms: _436  and  _438
REMARK  171  A    between atoms: _438  and  _439
REMARK  172  A    between atoms: _441  and  _443
REMARK  173  A    between atoms: _443  and  _444
REMARK  174  A    between atoms: _443  and  _446
REMARK  175  A    between atoms: _449  and  _451
REMARK  176  A    between atoms: _451  and  _452
REMARK  177  A    between atoms: _451  and  _454
REMARK  178  A    between atoms: _454  and  _455
REMARK  179  A    between atoms: _457  and  _459
REMARK  180  A    between atoms: _459  and  _460
REMARK  181  A    between atoms: _459  and  _462
REMARK  182  A    between atoms: _462  and  _463
REMARK  183  A    between atoms: _468  and  _469
REMARK  184  A    between atoms: _471  and  _473
REMARK  185  A    between atoms: _473  and  _474
REMARK  186  A    between atoms: _473  and  _476
REMARK  187  A    between atoms: _476  and  _477
REMARK  188  A    between atoms: _482  and  _483
REMARK  189  A    between atoms: _485  and  _487
REMARK  190  A    between atoms: _487  and  _488
REMARK  191  A    between atoms: _487  and  _490
REMARK  192  A    between atoms: _490  and  _491
REMARK  193  A    between atoms: _494  and  _496
REMARK  194  A    between atoms: _496  and  _497
REMARK  195  A    between atoms: _496  and  _499
REMARK  196  A    between atoms: _503  and  _504
REMARK  197  A    between atoms: _509  and  _511
REMARK  198  A    between atoms: _511  and  _512
REMARK  199  A    between atoms: _511  and  _514
REMARK  200  A    between atoms: _514  and  _515
REMARK  201  A    between atoms: _520  and  _521
REMARK  202  A    between atoms: _523  and  _525
REMARK  203  A    between atoms: _525  and  _526
REMARK  204  A    between atoms: _525  and  _528
REMARK  205  A    between atoms: _528  and  _529
REMARK  206  A    between atoms: _534  and  _535
REMARK  207  A    between atoms: _537  and  _539
REMARK  208  A    between atoms: _539  and  _540
REMARK  209  A    between atoms: _539  and  _542
REMARK  210  A    between atoms: _542  and  _543
REMARK  211  A    between atoms: _545  and  _547
REMARK  212  A    between atoms: _547  and  _548
REMARK  213  A    between atoms: _547  and  _550
REMARK  214  A    between atoms: _550  and  _551
REMARK  215  A    between atoms: _554  and  _556
REMARK  216  A    between atoms: _556  and  _557
REMARK  217  A    between atoms: _556  and  _559
REMARK  218  A    between atoms: _559  and  _560
REMARK  219  A    between atoms: _565  and  _566
REMARK  220  A    between atoms: _568  and  _570
REMARK  221  A    between atoms: _570  and  _571
REMARK  222  A    between atoms: _570  and  _573
REMARK  223  A    between atoms: _573  and  _574
REMARK  224  A    between atoms: _579  and  _580
REMARK  225  A    between atoms: _582  and  _584
REMARK  226  A    between atoms: _584  and  _585
REMARK  227  A    between atoms: _587  and  _589
REMARK  228  A    between atoms: _589  and  _590
REMARK  229  A    between atoms: _589  and  _592
REMARK  230  A    between atoms: _592  and  _593
REMARK  231  A    between atoms: _595  and  _597
REMARK  232  A    between atoms: _597  and  _598
REMARK  233  A    between atoms: _597  and  _600
REMARK  234  A    between atoms: _600  and  _601
REMARK  235  A    between atoms: _606  and  _608
REMARK  236  A    between atoms: _608  and  _609
REMARK  237  A    between atoms: _608  and  _611
REMARK  238  A    between atoms: _611  and  _612
REMARK  239  A    between atoms: _617  and  _618
REMARK                            x       y       z     vdW  Elec       q    Type
REMARK                         _______ _______ _______ _____ _____    ______ ____
ROOT
ATOM      1  O   HOH     1       2.707 -14.548  -2.095  0.00  0.00    +0.000 OA
ENDROOT
TORSDOF 0
REMARK  Name = ../refined-set-2016/2qbw/2qbw_pocket.pdb
REMARK  239 active torsions:
REMARK  status: ('A' for Active; 'I' for Inactive)
REMARK    1  A    between atoms: _1  and  _5
REMARK    2  A    between atoms: _5  and  _6
REMARK    3  A    between atoms: _5  and  _8
REMARK    4  A    between atoms: _8  and  _9
REMARK    5  A    between atoms: _12  and  _13
REMARK    6  A    between atoms: _18  and  _20
REMARK    7  A    between atoms: _20  and  _21
REMARK    8  A    between atoms: _20  and  _23
REMARK    9  A    between atoms: _23  and  _24
REMARK   10  A    between atoms: _24  and  _25
REMARK   11  A    between atoms: _28  and  _30
REMARK   12  A    between atoms: _30  and  _31
REMARK   13  A    between atoms: _30  and  _33
REMARK   14  A    between atoms: _33  and  _34
REMARK   15  A    between atoms: _37  and  _39
REMARK   16  A    between atoms: _39  and  _40
REMARK   17  A    between atoms: _42  and  _44
REMARK   18  A    between atoms: _44  and  _45
REMARK   19  A    between atoms: _44  and  _47
REMARK   20  A    between atoms: _47  and  _48
REMARK   21  A    between atoms: _54  and  _56
REMARK   22  A    between atoms: _56  and  _57
REMARK   23  A    between atoms: _56  and  _59
REMARK   24  A    between atoms: _59  and  _60
REMARK   25  A    between atoms: _62  and  _64
REMARK   26  A    between atoms: _64  and  _65
REMARK   27  A    between atoms: _64  and  _67
REMARK   28  A    between atoms: _67  and  _68
REMARK   29  A    between atoms: _71  and  _73
REMARK   30  A    between atoms: _73  and  _74
REMARK   31  A    between atoms: _73  and  _76
REMARK   32  A    between atoms: _76  and  _77
REMARK   33  A    between atoms: _79  and  _81
REMARK   34  A    between atoms: _81  and  _82
REMARK   35  A    between atoms: _84  and  _86
REMARK   36  A    between atoms: _86  and  _87
REMARK   37  A    between atoms: _89  and  _91
REMARK   38  A    between atoms: _91  and  _92
REMARK   39  A    between atoms: _94  and  _96
REMARK   40  A    between atoms: _96  and  _97
REMARK   41  A    between atoms: _96  and  _99
REMARK   42  A    between atoms: _99  and  _100
REMARK   43  A    between atoms: _100  and  _101
REMARK   44  A    between atoms: _101  and  _102
REMARK   45  A    between atoms: _111  and  _113
REMARK   46  A    between atoms: _113  and  _114
REMARK   47  A    between atoms: _116  and  _118
REMARK   48  A    between atoms: _118  and  _119
REMARK   49  A    between atoms: _118  and  _121
REMARK   50  A    between atoms: _121  and  _122
REMARK   51  A    between atoms: _128  and  _129
REMARK   52  A    between atoms: _134  and  _136
REMARK   53  A    between atoms: _136  and  _137
REMARK   54  A    between atoms: _136  and  _139
REMARK   55  A    between atoms: _139  and  _140
REMARK   56  A    between atoms: _146  and  _148
REMARK   57  A    between atoms: _148  and  _149
REMARK   58  A    between atoms: _148  and  _151
REMARK   59  A    between atoms: _151  and  _152
REMARK   60  A    between atoms: _155  and  _157
REMARK   61  A    between atoms: _157  and  _158
REMARK   62  A    between atoms: _157  and  _160
REMARK   63  A    between atoms: _160  and  _161
REMARK   64  A    between atoms: _167  and  _169
REMARK   65  A    between atoms: _169  and  _170
REMARK   66  A    between atoms: _169  and  _172
REMARK   67  A    between atoms: _175  and  _177
REMARK   68  A    between atoms: _177  and  _178
REMARK   69  A    between atoms: _177  and  _180
REMARK   70  A    between atoms: _180  and  _181
REMARK   71  A    between atoms: _184  and  _186
REMARK   72  A    between atoms: _186  and  _187
REMARK   73  A    between atoms: _186  and  _189
REMARK   74  A    between atoms: _189  and  _190
REMARK   75  A    between atoms: _190  and  _191
REMARK   76  A    between atoms: _191  and  _192
REMARK   77  A    between atoms: _201  and  _203
REMARK   78  A    between atoms: _203  and  _204
REMARK   79  A    between atoms: _203  and  _206
REMARK   80  A    between atoms: _209  and  _211
REMARK   81  A    between atoms: _211  and  _212
REMARK   82  A    between atoms: _211  and  _214
REMARK   83  A    between atoms: _214  and  _215
REMARK   84  A    between atoms: _215  and  _216
REMARK   85  A    between atoms: _222  and  _223
REMARK   86  A    between atoms: _229  and  _230
REMARK   87  A    between atoms: _235  and  _237
REMARK   88  A    between atoms: _237  and  _238
REMARK   89  A    between atoms: _241  and  _243
REMARK   90  A    between atoms: _243  and  _244
REMARK   91  A    between atoms: _243  and  _246
REMARK   92  A    between atoms: _246  and  _247
REMARK   93  A    between atoms: _250  and  _252
REMARK   94  A    between atoms: _252  and  _253
REMARK   95  A    between atoms: _252  and  _255
REMARK   96  A    between atoms: _255  and  _256
REMARK   97  A    between atoms: _259  and  _261
REMARK   98  A    between atoms: _261  and  _262
REMARK   99  A    between atoms: _261  and  _264
REMARK  100  A    between atoms: _264  and  _265
REMARK  101  A    between atoms: _271  and  _273
REMARK  102  A    between atoms: _273  and  _274
REMARK  103  A    between atoms: _273  and  _276
REMARK  104  A    between atoms: _276  and  _277
REMARK  105  A    between atoms: _282  and  _284
REMARK  106  A    between atoms: _284  and  _285
REMARK  107  A    between atoms: _287  and  _289
REMARK  108  A    between atoms: _289  and  _290
REMARK  109  A    between atoms: _293  and  _295
REMARK  110  A    between atoms: _295  and  _296
REMARK  111  A    between atoms: _295  and  _298
REMARK  112  A    between atoms: _301  and  _303
REMARK  113  A    between atoms: _303  and  _304
REMARK  114  A    between atoms: _303  and  _306
REMARK  115  A    between atoms: _306  and  _307
REMARK  116  A    between atoms: _309  and  _311
REMARK  117  A    between atoms: _311  and  _312
REMARK  118  A    between atoms: _311  and  _314
REMARK  119  A    between atoms: _314  and  _315
REMARK  120  A    between atoms: _318  and  _320
REMARK  121  A    between atoms: _320  and  _321
REMARK  122  A    between atoms: _320  and  _323
REMARK  123  A    between atoms: _323  and  _324
REMARK  124  A    between atoms: _327  and  _329
REMARK  125  A    between atoms: _329  and  _330
REMARK  126  A    between atoms: _329  and  _332
REMARK  127  A    between atoms: _332  and  _333
REMARK  128  A    between atoms: _333  and  _334
REMARK  129  A    between atoms: _334  and  _335
REMARK  130  A    between atoms: _335  and  _336
REMARK  131  A    between atoms: _340  and  _342
REMARK  132  A    between atoms: _342  and  _343
REMARK  133  A    between atoms: _342  and  _345
REMARK  134  A    between atoms: _345  and  _346
REMARK  135  A    between atoms: _349  and  _351
REMARK  136  A    between atoms: _351  and  _352
REMARK  137  A    between atoms: _351  and  _354
REMARK  138  A    between atoms: _354  and  _355
REMARK  139  A    between atoms: _361  and  _363
REMARK  140  A    between atoms: _363  and  _364
REMARK  141  A    between atoms: _363  and  _366
REMARK  142  A    between atoms: _369  and  _371
REMARK  143  A    between atoms: _371  and  _372
REMARK  144  A    between atoms: _371  and  _374
REMARK  145  A    between atoms: _374  and  _375
REMARK  146  A    between atoms: _378  and  _380
REMARK  147  A    between atoms: _380  and  _381
REMARK  148  A    between atoms: _380  and  _383
REMARK  149  A    between atoms: _386  and  _388
REMARK  150  A    between atoms: _388  and  _389
REMARK  151  A    between atoms: _388  and  _391
REMARK  152  A    between atoms: _391  and  _392
REMARK  153  A    between atoms: _392  and  _393
REMARK  154  A    between atoms: _393  and  _394
REMARK  155  A    between atoms: _394  and  _395
REMARK  156  A    between atoms: _399  and  _401
REMARK  157  A    between atoms: _401  and  _402
REMARK  158  A    between atoms: _401  and  _404
REMARK  159  A    between atoms: _404  and  _405
REMARK  160  A    between atoms: _408  and  _410
REMARK  161  A    between atoms: _410  and  _411
REMARK  162  A    between atoms: _410  and  _413
REMARK  163  A    between atoms: _413  and  _414
REMARK  164  A    between atoms: _419  and  _420
REMARK  165  A    between atoms: _422  and  _424
REMARK  166  A    between atoms: _424  and  _425
REMARK  167  A    between atoms: _424  and  _427
REMARK  168  A    between atoms: _427  and  _428
REMARK  169  A    between atoms: _433  and  _434
REMARK  170  A    between atoms: _436  and  _438
REMARK  171  A    between atoms: _438  and  _439
REMARK  172  A    between atoms: _441  and  _443
REMARK  173  A    between atoms: _443  and  _444
REMARK  174  A    between atoms: _443  and  _446
REMARK  175  A    between atoms: _449  and  _451
REMARK  176  A    between atoms: _451  and  _452
REMARK  177  A    between atoms: _451  and  _454
REMARK  178  A    between atoms: _454  and  _455
REMARK  179  A    between atoms: _457  and  _459
REMARK  180  A    between atoms: _459  and  _460
REMARK  181  A    between atoms: _459  and  _462
REMARK  182  A    between atoms: _462  and  _463
REMARK  183  A    between atoms: _468  and  _469
REMARK  184  A    between atoms: _471  and  _473
REMARK  185  A    between atoms: _473  and  _474
REMARK  186  A    between atoms: _473  and  _476
REMARK  187  A    between atoms: _476  and  _477
REMARK  188  A    between atoms: _482  and  _483
REMARK  189  A    between atoms: _485  and  _487
REMARK  190  A    between atoms: _487  and  _488
REMARK  191  A    between atoms: _487  and  _490
REMARK  192  A    between atoms: _490  and  _491
REMARK  193  A    between atoms: _494  and  _496
REMARK  194  A    between atoms: _496  and  _497
REMARK  195  A    between atoms: _496  and  _499
REMARK  196  A    between atoms: _503  and  _504
REMARK  197  A    between atoms: _509  and  _511
REMARK  198  A    between atoms: _511  and  _512
REMARK  199  A    between atoms: _511  and  _514
REMARK  200  A    between atoms: _514  and  _515
REMARK  201  A    between atoms: _520  and  _521
REMARK  202  A    between atoms: _523  and  _525
REMARK  203  A    between atoms: _525  and  _526
REMARK  204  A    between atoms: _525  and  _528
REMARK  205  A    between atoms: _528  and  _529
REMARK  206  A    between atoms: _534  and  _535
REMARK  207  A    between atoms: _537  and  _539
REMARK  208  A    between atoms: _539  and  _540
REMARK  209  A    between atoms: _539  and  _542
REMARK  210  A    between atoms: _542  and  _543
REMARK  211  A    between atoms: _545  and  _547
REMARK  212  A    between atoms: _547  and  _548
REMARK  213  A    between atoms: _547  and  _550
REMARK  214  A    between atoms: _550  and  _551
REMARK  215  A    between atoms: _554  and  _556
REMARK  216  A    between atoms: _556  and  _557
REMARK  217  A    between atoms: _556  and  _559
REMARK  218  A    between atoms: _559  and  _560
REMARK  219  A    between atoms: _565  and  _566
REMARK  220  A    between atoms: _568  and  _570
REMARK  221  A    between atoms: _570  and  _571
REMARK  222  A    between atoms: _570  and  _573
REMARK  223  A    between atoms: _573  and  _574
REMARK  224  A    between atoms: _579  and  _580
REMARK  225  A    between atoms: _582  and  _584
REMARK  226  A    between atoms: _584  and  _585
REMARK  227  A    between atoms: _587  and  _589
REMARK  228  A    between atoms: _589  and  _590
REMARK  229  A    between atoms: _589  and  _592
REMARK  230  A    between atoms: _592  and  _593
REMARK  231  A    between atoms: _595  and  _597
REMARK  232  A    between atoms: _597  and  _598
REMARK  233  A    between atoms: _597  and  _600
REMARK  234  A    between atoms: _600  and  _601
REMARK  235  A    between atoms: _606  and  _608
REMARK  236  A    between atoms: _608  and  _609
REMARK  237  A    between atoms: _608  and  _611
REMARK  238  A    between atoms: _611  and  _612
REMARK  239  A    between atoms: _617  and  _618
REMARK                            x       y       z     vdW  Elec       q    Type
REMARK                         _______ _______ _______ _____ _____    ______ ____
ROOT
ATOM      1  O   HOH     1      -4.062   2.082  -4.794  0.00  0.00    +0.000 OA
ENDROOT
TORSDOF 0
REMARK  Name = ../refined-set-2016/2qbw/2qbw_pocket.pdb
REMARK  239 active torsions:
REMARK  status: ('A' for Active; 'I' for Inactive)
REMARK    1  A    between atoms: _1  and  _5
REMARK    2  A    between atoms: _5  and  _6
REMARK    3  A    between atoms: _5  and  _8
REMARK    4  A    between atoms: _8  and  _9
REMARK    5  A    between atoms: _12  and  _13
REMARK    6  A    between atoms: _18  and  _20
REMARK    7  A    between atoms: _20  and  _21
REMARK    8  A    between atoms: _20  and  _23
REMARK    9  A    between atoms: _23  and  _24
REMARK   10  A    between atoms: _24  and  _25
REMARK   11  A    between atoms: _28  and  _30
REMARK   12  A    between atoms: _30  and  _31
REMARK   13  A    between atoms: _30  and  _33
REMARK   14  A    between atoms: _33  and  _34
REMARK   15  A    between atoms: _37  and  _39
REMARK   16  A    between atoms: _39  and  _40
REMARK   17  A    between atoms: _42  and  _44
REMARK   18  A    between atoms: _44  and  _45
REMARK   19  A    between atoms: _44  and  _47
REMARK   20  A    between atoms: _47  and  _48
REMARK   21  A    between atoms: _54  and  _56
REMARK   22  A    between atoms: _56  and  _57
REMARK   23  A    between atoms: _56  and  _59
REMARK   24  A    between atoms: _59  and  _60
REMARK   25  A    between atoms: _62  and  _64
REMARK   26  A    between atoms: _64  and  _65
REMARK   27  A    between atoms: _64  and  _67
REMARK   28  A    between atoms: _67  and  _68
REMARK   29  A    between atoms: _71  and  _73
REMARK   30  A    between atoms: _73  and  _74
REMARK   31  A    between atoms: _73  and  _76
REMARK   32  A    between atoms: _76  and  _77
REMARK   33  A    between atoms: _79  and  _81
REMARK   34  A    between atoms: _81  and  _82
REMARK   35  A    between atoms: _84  and  _86
REMARK   36  A    between atoms: _86  and  _87
REMARK   37  A    between atoms: _89  and  _91
REMARK   38  A    between atoms: _91  and  _92
REMARK   39  A    between atoms: _94  and  _96
REMARK   40  A    between atoms: _96  and  _97
REMARK   41  A    between atoms: _96  and  _99
REMARK   42  A    between atoms: _99  and  _100
REMARK   43  A    between atoms: _100  and  _101
REMARK   44  A    between atoms: _101  and  _102
REMARK   45  A    between atoms: _111  and  _113
REMARK   46  A    between atoms: _113  and  _114
REMARK   47  A    between atoms: _116  and  _118
REMARK   48  A    between atoms: _118  and  _119
REMARK   49  A    between atoms: _118  and  _121
REMARK   50  A    between atoms: _121  and  _122
REMARK   51  A    between atoms: _128  and  _129
REMARK   52  A    between atoms: _134  and  _136
REMARK   53  A    between atoms: _136  and  _137
REMARK   54  A    between atoms: _136  and  _139
REMARK   55  A    between atoms: _139  and  _140
REMARK   56  A    between atoms: _146  and  _148
REMARK   57  A    between atoms: _148  and  _149
REMARK   58  A    between atoms: _148  and  _151
REMARK   59  A    between atoms: _151  and  _152
REMARK   60  A    between atoms: _155  and  _157
REMARK   61  A    between atoms: _157  and  _158
REMARK   62  A    between atoms: _157  and  _160
REMARK   63  A    between atoms: _160  and  _161
REMARK   64  A    between atoms: _167  and  _169
REMARK   65  A    between atoms: _169  and  _170
REMARK   66  A    between atoms: _169  and  _172
REMARK   67  A    between atoms: _175  and  _177
REMARK   68  A    between atoms: _177  and  _178
REMARK   69  A    between atoms: _177  and  _180
REMARK   70  A    between atoms: _180  and  _181
REMARK   71  A    between atoms: _184  and  _186
REMARK   72  A    between atoms: _186  and  _187
REMARK   73  A    between atoms: _186  and  _189
REMARK   74  A    between atoms: _189  and  _190
REMARK   75  A    between atoms: _190  and  _191
REMARK   76  A    between atoms: _191  and  _192
REMARK   77  A    between atoms: _201  and  _203
REMARK   78  A    between atoms: _203  and  _204
REMARK   79  A    between atoms: _203  and  _206
REMARK   80  A    between atoms: _209  and  _211
REMARK   81  A    between atoms: _211  and  _212
REMARK   82  A    between atoms: _211  and  _214
REMARK   83  A    between atoms: _214  and  _215
REMARK   84  A    between atoms: _215  and  _216
REMARK   85  A    between atoms: _222  and  _223
REMARK   86  A    between atoms: _229  and  _230
REMARK   87  A    between atoms: _235  and  _237
REMARK   88  A    between atoms: _237  and  _238
REMARK   89  A    between atoms: _241  and  _243
REMARK   90  A    between atoms: _243  and  _244
REMARK   91  A    between atoms: _243  and  _246
REMARK   92  A    between atoms: _246  and  _247
REMARK   93  A    between atoms: _250  and  _252
REMARK   94  A    between atoms: _252  and  _253
REMARK   95  A    between atoms: _252  and  _255
REMARK   96  A    between atoms: _255  and  _256
REMARK   97  A    between atoms: _259  and  _261
REMARK   98  A    between atoms: _261  and  _262
REMARK   99  A    between atoms: _261  and  _264
REMARK  100  A    between atoms: _264  and  _265
REMARK  101  A    between atoms: _271  and  _273
REMARK  102  A    between atoms: _273  and  _274
REMARK  103  A    between atoms: _273  and  _276
REMARK  104  A    between atoms: _276  and  _277
REMARK  105  A    between atoms: _282  and  _284
REMARK  106  A    between atoms: _284  and  _285
REMARK  107  A    between atoms: _287  and  _289
REMARK  108  A    between atoms: _289  and  _290
REMARK  109  A    between atoms: _293  and  _295
REMARK  110  A    between atoms: _295  and  _296
REMARK  111  A    between atoms: _295  and  _298
REMARK  112  A    between atoms: _301  and  _303
REMARK  113  A    between atoms: _303  and  _304
REMARK  114  A    between atoms: _303  and  _306
REMARK  115  A    between atoms: _306  and  _307
REMARK  116  A    between atoms: _309  and  _311
REMARK  117  A    between atoms: _311  and  _312
REMARK  118  A    between atoms: _311  and  _314
REMARK  119  A    between atoms: _314  and  _315
REMARK  120  A    between atoms: _318  and  _320
REMARK  121  A    between atoms: _320  and  _321
REMARK  122  A    between atoms: _320  and  _323
REMARK  123  A    between atoms: _323  and  _324
REMARK  124  A    between atoms: _327  and  _329
REMARK  125  A    between atoms: _329  and  _330
REMARK  126  A    between atoms: _329  and  _332
REMARK  127  A    between atoms: _332  and  _333
REMARK  128  A    between atoms: _333  and  _334
REMARK  129  A    between atoms: _334  and  _335
REMARK  130  A    between atoms: _335  and  _336
REMARK  131  A    between atoms: _340  and  _342
REMARK  132  A    between atoms: _342  and  _343
REMARK  133  A    between atoms: _342  and  _345
REMARK  134  A    between atoms: _345  and  _346
REMARK  135  A    between atoms: _349  and  _351
REMARK  136  A    between atoms: _351  and  _352
REMARK  137  A    between atoms: _351  and  _354
REMARK  138  A    between atoms: _354  and  _355
REMARK  139  A    between atoms: _361  and  _363
REMARK  140  A    between atoms: _363  and  _364
REMARK  141  A    between atoms: _363  and  _366
REMARK  142  A    between atoms: _369  and  _371
REMARK  143  A    between atoms: _371  and  _372
REMARK  144  A    between atoms: _371  and  _374
REMARK  145  A    between atoms: _374  and  _375
REMARK  146  A    between atoms: _378  and  _380
REMARK  147  A    between atoms: _380  and  _381
REMARK  148  A    between atoms: _380  and  _383
REMARK  149  A    between atoms: _386  and  _388
REMARK  150  A    between atoms: _388  and  _389
REMARK  151  A    between atoms: _388  and  _391
REMARK  152  A    between atoms: _391  and  _392
REMARK  153  A    between atoms: _392  and  _393
REMARK  154  A    between atoms: _393  and  _394
REMARK  155  A    between atoms: _394  and  _395
REMARK  156  A    between atoms: _399  and  _401
REMARK  157  A    between atoms: _401  and  _402
REMARK  158  A    between atoms: _401  and  _404
REMARK  159  A    between atoms: _404  and  _405
REMARK  160  A    between atoms: _408  and  _410
REMARK  161  A    between atoms: _410  and  _411
REMARK  162  A    between atoms: _410  and  _413
REMARK  163  A    between atoms: _413  and  _414
REMARK  164  A    between atoms: _419  and  _420
REMARK  165  A    between atoms: _422  and  _424
REMARK  166  A    between atoms: _424  and  _425
REMARK  167  A    between atoms: _424  and  _427
REMARK  168  A    between atoms: _427  and  _428
REMARK  169  A    between atoms: _433  and  _434
REMARK  170  A    between atoms: _436  and  _438
REMARK  171  A    between atoms: _438  and  _439
REMARK  172  A    between atoms: _441  and  _443
REMARK  173  A    between atoms: _443  and  _444
REMARK  174  A    between atoms: _443  and  _446
REMARK  175  A    between atoms: _449  and  _451
REMARK  176  A    between atoms: _451  and  _452
REMARK  177  A    between atoms: _451  and  _454
REMARK  178  A    between atoms: _454  and  _455
REMARK  179  A    between atoms: _457  and  _459
REMARK  180  A    between atoms: _459  and  _460
REMARK  181  A    between atoms: _459  and  _462
REMARK  182  A    between atoms: _462  and  _463
REMARK  183  A    between atoms: _468  and  _469
REMARK  184  A    between atoms: _471  and  _473
REMARK  185  A    between atoms: _473  and  _474
REMARK  186  A    between atoms: _473  and  _476
REMARK  187  A    between atoms: _476  and  _477
REMARK  188  A    between atoms: _482  and  _483
REMARK  189  A    between atoms: _485  and  _487
REMARK  190  A    between atoms: _487  and  _488
REMARK  191  A    between atoms: _487  and  _490
REMARK  192  A    between atoms: _490  and  _491
REMARK  193  A    between atoms: _494  and  _496
REMARK  194  A    between atoms: _496  and  _497
REMARK  195  A    between atoms: _496  and  _499
REMARK  196  A    between atoms: _503  and  _504
REMARK  197  A    between atoms: _509  and  _511
REMARK  198  A    between atoms: _511  and  _512
REMARK  199  A    between atoms: _511  and  _514
REMARK  200  A    between atoms: _514  and  _515
REMARK  201  A    between atoms: _520  and  _521
REMARK  202  A    between atoms: _523  and  _525
REMARK  203  A    between atoms: _525  and  _526
REMARK  204  A    between atoms: _525  and  _528
REMARK  205  A    between atoms: _528  and  _529
REMARK  206  A    between atoms: _534  and  _535
REMARK  207  A    between atoms: _537  and  _539
REMARK  208  A    between atoms: _539  and  _540
REMARK  209  A    between atoms: _539  and  _542
REMARK  210  A    between atoms: _542  and  _543
REMARK  211  A    between atoms: _545  and  _547
REMARK  212  A    between atoms: _547  and  _548
REMARK  213  A    between atoms: _547  and  _550
REMARK  214  A    between atoms: _550  and  _551
REMARK  215  A    between atoms: _554  and  _556
REMARK  216  A    between atoms: _556  and  _557
REMARK  217  A    between atoms: _556  and  _559
REMARK  218  A    between atoms: _559  and  _560
REMARK  219  A    between atoms: _565  and  _566
REMARK  220  A    between atoms: _568  and  _570
REMARK  221  A    between atoms: _570  and  _571
REMARK  222  A    between atoms: _570  and  _573
REMARK  223  A    between atoms: _573  and  _574
REMARK  224  A    between atoms: _579  and  _580
REMARK  225  A    between atoms: _582  and  _584
REMARK  226  A    between atoms: _584  and  _585
REMARK  227  A    between atoms: _587  and  _589
REMARK  228  A    between atoms: _589  and  _590
REMARK  229  A    between atoms: _589  and  _592
REMARK  230  A    between atoms: _592  and  _593
REMARK  231  A    between atoms: _595  and  _597
REMARK  232  A    between atoms: _597  and  _598
REMARK  233  A    between atoms: _597  and  _600
REMARK  234  A    between atoms: _600  and  _601
REMARK  235  A    between atoms: _606  and  _608
REMARK  236  A    between atoms: _608  and  _609
REMARK  237  A    between atoms: _608  and  _611
REMARK  238  A    between atoms: _611  and  _612
REMARK  239  A    between atoms: _617  and  _618
REMARK                            x       y       z     vdW  Elec       q    Type
REMARK                         _______ _______ _______ _____ _____    ______ ____
ROOT
ATOM      1  O   HOH     1       9.645 -17.446  -6.888  0.00  0.00    +0.000 OA
ENDROOT
TORSDOF 0
REMARK  Name = ../refined-set-2016/2qbw/2qbw_pocket.pdb
REMARK  239 active torsions:
REMARK  status: ('A' for Active; 'I' for Inactive)
REMARK    1  A    between atoms: _1  and  _5
REMARK    2  A    between atoms: _5  and  _6
REMARK    3  A    between atoms: _5  and  _8
REMARK    4  A    between atoms: _8  and  _9
REMARK    5  A    between atoms: _12  and  _13
REMARK    6  A    between atoms: _18  and  _20
REMARK    7  A    between atoms: _20  and  _21
REMARK    8  A    between atoms: _20  and  _23
REMARK    9  A    between atoms: _23  and  _24
REMARK   10  A    between atoms: _24  and  _25
REMARK   11  A    between atoms: _28  and  _30
REMARK   12  A    between atoms: _30  and  _31
REMARK   13  A    between atoms: _30  and  _33
REMARK   14  A    between atoms: _33  and  _34
REMARK   15  A    between atoms: _37  and  _39
REMARK   16  A    between atoms: _39  and  _40
REMARK   17  A    between atoms: _42  and  _44
REMARK   18  A    between atoms: _44  and  _45
REMARK   19  A    between atoms: _44  and  _47
REMARK   20  A    between atoms: _47  and  _48
REMARK   21  A    between atoms: _54  and  _56
REMARK   22  A    between atoms: _56  and  _57
REMARK   23  A    between atoms: _56  and  _59
REMARK   24  A    between atoms: _59  and  _60
REMARK   25  A    between atoms: _62  and  _64
REMARK   26  A    between atoms: _64  and  _65
REMARK   27  A    between atoms: _64  and  _67
REMARK   28  A    between atoms: _67  and  _68
REMARK   29  A    between atoms: _71  and  _73
REMARK   30  A    between atoms: _73  and  _74
REMARK   31  A    between atoms: _73  and  _76
REMARK   32  A    between atoms: _76  and  _77
REMARK   33  A    between atoms: _79  and  _81
REMARK   34  A    between atoms: _81  and  _82
REMARK   35  A    between atoms: _84  and  _86
REMARK   36  A    between atoms: _86  and  _87
REMARK   37  A    between atoms: _89  and  _91
REMARK   38  A    between atoms: _91  and  _92
REMARK   39  A    between atoms: _94  and  _96
REMARK   40  A    between atoms: _96  and  _97
REMARK   41  A    between atoms: _96  and  _99
REMARK   42  A    between atoms: _99  and  _100
REMARK   43  A    between atoms: _100  and  _101
REMARK   44  A    between atoms: _101  and  _102
REMARK   45  A    between atoms: _111  and  _113
REMARK   46  A    between atoms: _113  and  _114
REMARK   47  A    between atoms: _116  and  _118
REMARK   48  A    between atoms: _118  and  _119
REMARK   49  A    between atoms: _118  and  _121
REMARK   50  A    between atoms: _121  and  _122
REMARK   51  A    between atoms: _128  and  _129
REMARK   52  A    between atoms: _134  and  _136
REMARK   53  A    between atoms: _136  and  _137
REMARK   54  A    between atoms: _136  and  _139
REMARK   55  A    between atoms: _139  and  _140
REMARK   56  A    between atoms: _146  and  _148
REMARK   57  A    between atoms: _148  and  _149
REMARK   58  A    between atoms: _148  and  _151
REMARK   59  A    between atoms: _151  and  _152
REMARK   60  A    between atoms: _155  and  _157
REMARK   61  A    between atoms: _157  and  _158
REMARK   62  A    between atoms: _157  and  _160
REMARK   63  A    between atoms: _160  and  _161
REMARK   64  A    between atoms: _167  and  _169
REMARK   65  A    between atoms: _169  and  _170
REMARK   66  A    between atoms: _169  and  _172
REMARK   67  A    between atoms: _175  and  _177
REMARK   68  A    between atoms: _177  and  _178
REMARK   69  A    between atoms: _177  and  _180
REMARK   70  A    between atoms: _180  and  _181
REMARK   71  A    between atoms: _184  and  _186
REMARK   72  A    between atoms: _186  and  _187
REMARK   73  A    between atoms: _186  and  _189
REMARK   74  A    between atoms: _189  and  _190
REMARK   75  A    between atoms: _190  and  _191
REMARK   76  A    between atoms: _191  and  _192
REMARK   77  A    between atoms: _201  and  _203
REMARK   78  A    between atoms: _203  and  _204
REMARK   79  A    between atoms: _203  and  _206
REMARK   80  A    between atoms: _209  and  _211
REMARK   81  A    between atoms: _211  and  _212
REMARK   82  A    between atoms: _211  and  _214
REMARK   83  A    between atoms: _214  and  _215
REMARK   84  A    between atoms: _215  and  _216
REMARK   85  A    between atoms: _222  and  _223
REMARK   86  A    between atoms: _229  and  _230
REMARK   87  A    between atoms: _235  and  _237
REMARK   88  A    between atoms: _237  and  _238
REMARK   89  A    between atoms: _241  and  _243
REMARK   90  A    between atoms: _243  and  _244
REMARK   91  A    between atoms: _243  and  _246
REMARK   92  A    between atoms: _246  and  _247
REMARK   93  A    between atoms: _250  and  _252
REMARK   94  A    between atoms: _252  and  _253
REMARK   95  A    between atoms: _252  and  _255
REMARK   96  A    between atoms: _255  and  _256
REMARK   97  A    between atoms: _259  and  _261
REMARK   98  A    between atoms: _261  and  _262
REMARK   99  A    between atoms: _261  and  _264
REMARK  100  A    between atoms: _264  and  _265
REMARK  101  A    between atoms: _271  and  _273
REMARK  102  A    between atoms: _273  and  _274
REMARK  103  A    between atoms: _273  and  _276
REMARK  104  A    between atoms: _276  and  _277
REMARK  105  A    between atoms: _282  and  _284
REMARK  106  A    between atoms: _284  and  _285
REMARK  107  A    between atoms: _287  and  _289
REMARK  108  A    between atoms: _289  and  _290
REMARK  109  A    between atoms: _293  and  _295
REMARK  110  A    between atoms: _295  and  _296
REMARK  111  A    between atoms: _295  and  _298
REMARK  112  A    between atoms: _301  and  _303
REMARK  113  A    between atoms: _303  and  _304
REMARK  114  A    between atoms: _303  and  _306
REMARK  115  A    between atoms: _306  and  _307
REMARK  116  A    between atoms: _309  and  _311
REMARK  117  A    between atoms: _311  and  _312
REMARK  118  A    between atoms: _311  and  _314
REMARK  119  A    between atoms: _314  and  _315
REMARK  120  A    between atoms: _318  and  _320
REMARK  121  A    between atoms: _320  and  _321
REMARK  122  A    between atoms: _320  and  _323
REMARK  123  A    between atoms: _323  and  _324
REMARK  124  A    between atoms: _327  and  _329
REMARK  125  A    between atoms: _329  and  _330
REMARK  126  A    between atoms: _329  and  _332
REMARK  127  A    between atoms: _332  and  _333
REMARK  128  A    between atoms: _333  and  _334
REMARK  129  A    between atoms: _334  and  _335
REMARK  130  A    between atoms: _335  and  _336
REMARK  131  A    between atoms: _340  and  _342
REMARK  132  A    between atoms: _342  and  _343
REMARK  133  A    between atoms: _342  and  _345
REMARK  134  A    between atoms: _345  and  _346
REMARK  135  A    between atoms: _349  and  _351
REMARK  136  A    between atoms: _351  and  _352
REMARK  137  A    between atoms: _351  and  _354
REMARK  138  A    between atoms: _354  and  _355
REMARK  139  A    between atoms: _361  and  _363
REMARK  140  A    between atoms: _363  and  _364
REMARK  141  A    between atoms: _363  and  _366
REMARK  142  A    between atoms: _369  and  _371
REMARK  143  A    between atoms: _371  and  _372
REMARK  144  A    between atoms: _371  and  _374
REMARK  145  A    between atoms: _374  and  _375
REMARK  146  A    between atoms: _378  and  _380
REMARK  147  A    between atoms: _380  and  _381
REMARK  148  A    between atoms: _380  and  _383
REMARK  149  A    between atoms: _386  and  _388
REMARK  150  A    between atoms: _388  and  _389
REMARK  151  A    between atoms: _388  and  _391
REMARK  152  A    between atoms: _391  and  _392
REMARK  153  A    between atoms: _392  and  _393
REMARK  154  A    between atoms: _393  and  _394
REMARK  155  A    between atoms: _394  and  _395
REMARK  156  A    between atoms: _399  and  _401
REMARK  157  A    between atoms: _401  and  _402
REMARK  158  A    between atoms: _401  and  _404
REMARK  159  A    between atoms: _404  and  _405
REMARK  160  A    between atoms: _408  and  _410
REMARK  161  A    between atoms: _410  and  _411
REMARK  162  A    between atoms: _410  and  _413
REMARK  163  A    between atoms: _413  and  _414
REMARK  164  A    between atoms: _419  and  _420
REMARK  165  A    between atoms: _422  and  _424
REMARK  166  A    between atoms: _424  and  _425
REMARK  167  A    between atoms: _424  and  _427
REMARK  168  A    between atoms: _427  and  _428
REMARK  169  A    between atoms: _433  and  _434
REMARK  170  A    between atoms: _436  and  _438
REMARK  171  A    between atoms: _438  and  _439
REMARK  172  A    between atoms: _441  and  _443
REMARK  173  A    between atoms: _443  and  _444
REMARK  174  A    between atoms: _443  and  _446
REMARK  175  A    between atoms: _449  and  _451
REMARK  176  A    between atoms: _451  and  _452
REMARK  177  A    between atoms: _451  and  _454
REMARK  178  A    between atoms: _454  and  _455
REMARK  179  A    between atoms: _457  and  _459
REMARK  180  A    between atoms: _459  and  _460
REMARK  181  A    between atoms: _459  and  _462
REMARK  182  A    between atoms: _462  and  _463
REMARK  183  A    between atoms: _468  and  _469
REMARK  184  A    between atoms: _471  and  _473
REMARK  185  A    between atoms: _473  and  _474
REMARK  186  A    between atoms: _473  and  _476
REMARK  187  A    between atoms: _476  and  _477
REMARK  188  A    between atoms: _482  and  _483
REMARK  189  A    between atoms: _485  and  _487
REMARK  190  A    between atoms: _487  and  _488
REMARK  191  A    between atoms: _487  and  _490
REMARK  192  A    between atoms: _490  and  _491
REMARK  193  A    between atoms: _494  and  _496
REMARK  194  A    between atoms: _496  and  _497
REMARK  195  A    between atoms: _496  and  _499
REMARK  196  A    between atoms: _503  and  _504
REMARK  197  A    between atoms: _509  and  _511
REMARK  198  A    between atoms: _511  and  _512
REMARK  199  A    between atoms: _511  and  _514
REMARK  200  A    between atoms: _514  and  _515
REMARK  201  A    between atoms: _520  and  _521
REMARK  202  A    between atoms: _523  and  _525
REMARK  203  A    between atoms: _525  and  _526
REMARK  204  A    between atoms: _525  and  _528
REMARK  205  A    between atoms: _528  and  _529
REMARK  206  A    between atoms: _534  and  _535
REMARK  207  A    between atoms: _537  and  _539
REMARK  208  A    between atoms: _539  and  _540
REMARK  209  A    between atoms: _539  and  _542
REMARK  210  A    between atoms: _542  and  _543
REMARK  211  A    between atoms: _545  and  _547
REMARK  212  A    between atoms: _547  and  _548
REMARK  213  A    between atoms: _547  and  _550
REMARK  214  A    between atoms: _550  and  _551
REMARK  215  A    between atoms: _554  and  _556
REMARK  216  A    between atoms: _556  and  _557
REMARK  217  A    between atoms: _556  and  _559
REMARK  218  A    between atoms: _559  and  _560
REMARK  219  A    between atoms: _565  and  _566
REMARK  220  A    between atoms: _568  and  _570
REMARK  221  A    between atoms: _570  and  _571
REMARK  222  A    between atoms: _570  and  _573
REMARK  223  A    between atoms: _573  and  _574
REMARK  224  A    between atoms: _579  and  _580
REMARK  225  A    between atoms: _582  and  _584
REMARK  226  A    between atoms: _584  and  _585
REMARK  227  A    between atoms: _587  and  _589
REMARK  228  A    between atoms: _589  and  _590
REMARK  229  A    between atoms: _589  and  _592
REMARK  230  A    between atoms: _592  and  _593
REMARK  231  A    between atoms: _595  and  _597
REMARK  232  A    between atoms: _597  and  _598
REMARK  233  A    between atoms: _597  and  _600
REMARK  234  A    between atoms: _600  and  _601
REMARK  235  A    between atoms: _606  and  _608
REMARK  236  A    between atoms: _608  and  _609
REMARK  237  A    between atoms: _608  and  _611
REMARK  238  A    between atoms: _611  and  _612
REMARK  239  A    between atoms: _617  and  _618
REMARK                            x       y       z     vdW  Elec       q    Type
REMARK                         _______ _______ _______ _____ _____    ______ ____
ROOT
ATOM      1  O   HOH     1      -4.351 -14.541   0.020  0.00  0.00    +0.000 OA
ENDROOT
TORSDOF 0
REMARK  Name = ../refined-set-2016/2qbw/2qbw_pocket.pdb
REMARK  239 active torsions:
REMARK  status: ('A' for Active; 'I' for Inactive)
REMARK    1  A    between atoms: _1  and  _5
REMARK    2  A    between atoms: _5  and  _6
REMARK    3  A    between atoms: _5  and  _8
REMARK    4  A    between atoms: _8  and  _9
REMARK    5  A    between atoms: _12  and  _13
REMARK    6  A    between atoms: _18  and  _20
REMARK    7  A    between atoms: _20  and  _21
REMARK    8  A    between atoms: _20  and  _23
REMARK    9  A    between atoms: _23  and  _24
REMARK   10  A    between atoms: _24  and  _25
REMARK   11  A    between atoms: _28  and  _30
REMARK   12  A    between atoms: _30  and  _31
REMARK   13  A    between atoms: _30  and  _33
REMARK   14  A    between atoms: _33  and  _34
REMARK   15  A    between atoms: _37  and  _39
REMARK   16  A    between atoms: _39  and  _40
REMARK   17  A    between atoms: _42  and  _44
REMARK   18  A    between atoms: _44  and  _45
REMARK   19  A    between atoms: _44  and  _47
REMARK   20  A    between atoms: _47  and  _48
REMARK   21  A    between atoms: _54  and  _56
REMARK   22  A    between atoms: _56  and  _57
REMARK   23  A    between atoms: _56  and  _59
REMARK   24  A    between atoms: _59  and  _60
REMARK   25  A    between atoms: _62  and  _64
REMARK   26  A    between atoms: _64  and  _65
REMARK   27  A    between atoms: _64  and  _67
REMARK   28  A    between atoms: _67  and  _68
REMARK   29  A    between atoms: _71  and  _73
REMARK   30  A    between atoms: _73  and  _74
REMARK   31  A    between atoms: _73  and  _76
REMARK   32  A    between atoms: _76  and  _77
REMARK   33  A    between atoms: _79  and  _81
REMARK   34  A    between atoms: _81  and  _82
REMARK   35  A    between atoms: _84  and  _86
REMARK   36  A    between atoms: _86  and  _87
REMARK   37  A    between atoms: _89  and  _91
REMARK   38  A    between atoms: _91  and  _92
REMARK   39  A    between atoms: _94  and  _96
REMARK   40  A    between atoms: _96  and  _97
REMARK   41  A    between atoms: _96  and  _99
REMARK   42  A    between atoms: _99  and  _100
REMARK   43  A    between atoms: _100  and  _101
REMARK   44  A    between atoms: _101  and  _102
REMARK   45  A    between atoms: _111  and  _113
REMARK   46  A    between atoms: _113  and  _114
REMARK   47  A    between atoms: _116  and  _118
REMARK   48  A    between atoms: _118  and  _119
REMARK   49  A    between atoms: _118  and  _121
REMARK   50  A    between atoms: _121  and  _122
REMARK   51  A    between atoms: _128  and  _129
REMARK   52  A    between atoms: _134  and  _136
REMARK   53  A    between atoms: _136  and  _137
REMARK   54  A    between atoms: _136  and  _139
REMARK   55  A    between atoms: _139  and  _140
REMARK   56  A    between atoms: _146  and  _148
REMARK   57  A    between atoms: _148  and  _149
REMARK   58  A    between atoms: _148  and  _151
REMARK   59  A    between atoms: _151  and  _152
REMARK   60  A    between atoms: _155  and  _157
REMARK   61  A    between atoms: _157  and  _158
REMARK   62  A    between atoms: _157  and  _160
REMARK   63  A    between atoms: _160  and  _161
REMARK   64  A    between atoms: _167  and  _169
REMARK   65  A    between atoms: _169  and  _170
REMARK   66  A    between atoms: _169  and  _172
REMARK   67  A    between atoms: _175  and  _177
REMARK   68  A    between atoms: _177  and  _178
REMARK   69  A    between atoms: _177  and  _180
REMARK   70  A    between atoms: _180  and  _181
REMARK   71  A    between atoms: _184  and  _186
REMARK   72  A    between atoms: _186  and  _187
REMARK   73  A    between atoms: _186  and  _189
REMARK   74  A    between atoms: _189  and  _190
REMARK   75  A    between atoms: _190  and  _191
REMARK   76  A    between atoms: _191  and  _192
REMARK   77  A    between atoms: _201  and  _203
REMARK   78  A    between atoms: _203  and  _204
REMARK   79  A    between atoms: _203  and  _206
REMARK   80  A    between atoms: _209  and  _211
REMARK   81  A    between atoms: _211  and  _212
REMARK   82  A    between atoms: _211  and  _214
REMARK   83  A    between atoms: _214  and  _215
REMARK   84  A    between atoms: _215  and  _216
REMARK   85  A    between atoms: _222  and  _223
REMARK   86  A    between atoms: _229  and  _230
REMARK   87  A    between atoms: _235  and  _237
REMARK   88  A    between atoms: _237  and  _238
REMARK   89  A    between atoms: _241  and  _243
REMARK   90  A    between atoms: _243  and  _244
REMARK   91  A    between atoms: _243  and  _246
REMARK   92  A    between atoms: _246  and  _247
REMARK   93  A    between atoms: _250  and  _252
REMARK   94  A    between atoms: _252  and  _253
REMARK   95  A    between atoms: _252  and  _255
REMARK   96  A    between atoms: _255  and  _256
REMARK   97  A    between atoms: _259  and  _261
REMARK   98  A    between atoms: _261  and  _262
REMARK   99  A    between atoms: _261  and  _264
REMARK  100  A    between atoms: _264  and  _265
REMARK  101  A    between atoms: _271  and  _273
REMARK  102  A    between atoms: _273  and  _274
REMARK  103  A    between atoms: _273  and  _276
REMARK  104  A    between atoms: _276  and  _277
REMARK  105  A    between atoms: _282  and  _284
REMARK  106  A    between atoms: _284  and  _285
REMARK  107  A    between atoms: _287  and  _289
REMARK  108  A    between atoms: _289  and  _290
REMARK  109  A    between atoms: _293  and  _295
REMARK  110  A    between atoms: _295  and  _296
REMARK  111  A    between atoms: _295  and  _298
REMARK  112  A    between atoms: _301  and  _303
REMARK  113  A    between atoms: _303  and  _304
REMARK  114  A    between atoms: _303  and  _306
REMARK  115  A    between atoms: _306  and  _307
REMARK  116  A    between atoms: _309  and  _311
REMARK  117  A    between atoms: _311  and  _312
REMARK  118  A    between atoms: _311  and  _314
REMARK  119  A    between atoms: _314  and  _315
REMARK  120  A    between atoms: _318  and  _320
REMARK  121  A    between atoms: _320  and  _321
REMARK  122  A    between atoms: _320  and  _323
REMARK  123  A    between atoms: _323  and  _324
REMARK  124  A    between atoms: _327  and  _329
REMARK  125  A    between atoms: _329  and  _330
REMARK  126  A    between atoms: _329  and  _332
REMARK  127  A    between atoms: _332  and  _333
REMARK  128  A    between atoms: _333  and  _334
REMARK  129  A    between atoms: _334  and  _335
REMARK  130  A    between atoms: _335  and  _336
REMARK  131  A    between atoms: _340  and  _342
REMARK  132  A    between atoms: _342  and  _343
REMARK  133  A    between atoms: _342  and  _345
REMARK  134  A    between atoms: _345  and  _346
REMARK  135  A    between atoms: _349  and  _351
REMARK  136  A    between atoms: _351  and  _352
REMARK  137  A    between atoms: _351  and  _354
REMARK  138  A    between atoms: _354  and  _355
REMARK  139  A    between atoms: _361  and  _363
REMARK  140  A    between atoms: _363  and  _364
REMARK  141  A    between atoms: _363  and  _366
REMARK  142  A    between atoms: _369  and  _371
REMARK  143  A    between atoms: _371  and  _372
REMARK  144  A    between atoms: _371  and  _374
REMARK  145  A    between atoms: _374  and  _375
REMARK  146  A    between atoms: _378  and  _380
REMARK  147  A    between atoms: _380  and  _381
REMARK  148  A    between atoms: _380  and  _383
REMARK  149  A    between atoms: _386  and  _388
REMARK  150  A    between atoms: _388  and  _389
REMARK  151  A    between atoms: _388  and  _391
REMARK  152  A    between atoms: _391  and  _392
REMARK  153  A    between atoms: _392  and  _393
REMARK  154  A    between atoms: _393  and  _394
REMARK  155  A    between atoms: _394  and  _395
REMARK  156  A    between atoms: _399  and  _401
REMARK  157  A    between atoms: _401  and  _402
REMARK  158  A    between atoms: _401  and  _404
REMARK  159  A    between atoms: _404  and  _405
REMARK  160  A    between atoms: _408  and  _410
REMARK  161  A    between atoms: _410  and  _411
REMARK  162  A    between atoms: _410  and  _413
REMARK  163  A    between atoms: _413  and  _414
REMARK  164  A    between atoms: _419  and  _420
REMARK  165  A    between atoms: _422  and  _424
REMARK  166  A    between atoms: _424  and  _425
REMARK  167  A    between atoms: _424  and  _427
REMARK  168  A    between atoms: _427  and  _428
REMARK  169  A    between atoms: _433  and  _434
REMARK  170  A    between atoms: _436  and  _438
REMARK  171  A    between atoms: _438  and  _439
REMARK  172  A    between atoms: _441  and  _443
REMARK  173  A    between atoms: _443  and  _444
REMARK  174  A    between atoms: _443  and  _446
REMARK  175  A    between atoms: _449  and  _451
REMARK  176  A    between atoms: _451  and  _452
REMARK  177  A    between atoms: _451  and  _454
REMARK  178  A    between atoms: _454  and  _455
REMARK  179  A    between atoms: _457  and  _459
REMARK  180  A    between atoms: _459  and  _460
REMARK  181  A    between atoms: _459  and  _462
REMARK  182  A    between atoms: _462  and  _463
REMARK  183  A    between atoms: _468  and  _469
REMARK  184  A    between atoms: _471  and  _473
REMARK  185  A    between atoms: _473  and  _474
REMARK  186  A    between atoms: _473  and  _476
REMARK  187  A    between atoms: _476  and  _477
REMARK  188  A    between atoms: _482  and  _483
REMARK  189  A    between atoms: _485  and  _487
REMARK  190  A    between atoms: _487  and  _488
REMARK  191  A    between atoms: _487  and  _490
REMARK  192  A    between atoms: _490  and  _491
REMARK  193  A    between atoms: _494  and  _496
REMARK  194  A    between atoms: _496  and  _497
REMARK  195  A    between atoms: _496  and  _499
REMARK  196  A    between atoms: _503  and  _504
REMARK  197  A    between atoms: _509  and  _511
REMARK  198  A    between atoms: _511  and  _512
REMARK  199  A    between atoms: _511  and  _514
REMARK  200  A    between atoms: _514  and  _515
REMARK  201  A    between atoms: _520  and  _521
REMARK  202  A    between atoms: _523  and  _525
REMARK  203  A    between atoms: _525  and  _526
REMARK  204  A    between atoms: _525  and  _528
REMARK  205  A    between atoms: _528  and  _529
REMARK  206  A    between atoms: _534  and  _535
REMARK  207  A    between atoms: _537  and  _539
REMARK  208  A    between atoms: _539  and  _540
REMARK  209  A    between atoms: _539  and  _542
REMARK  210  A    between atoms: _542  and  _543
REMARK  211  A    between atoms: _545  and  _547
REMARK  212  A    between atoms: _547  and  _548
REMARK  213  A    between atoms: _547  and  _550
REMARK  214  A    between atoms: _550  and  _551
REMARK  215  A    between atoms: _554  and  _556
REMARK  216  A    between atoms: _556  and  _557
REMARK  217  A    between atoms: _556  and  _559
REMARK  218  A    between atoms: _559  and  _560
REMARK  219  A    between atoms: _565  and  _566
REMARK  220  A    between atoms: _568  and  _570
REMARK  221  A    between atoms: _570  and  _571
REMARK  222  A    between atoms: _570  and  _573
REMARK  223  A    between atoms: _573  and  _574
REMARK  224  A    between atoms: _579  and  _580
REMARK  225  A    between atoms: _582  and  _584
REMARK  226  A    between atoms: _584  and  _585
REMARK  227  A    between atoms: _587  and  _589
REMARK  228  A    between atoms: _589  and  _590
REMARK  229  A    between atoms: _589  and  _592
REMARK  230  A    between atoms: _592  and  _593
REMARK  231  A    between atoms: _595  and  _597
REMARK  232  A    between atoms: _597  and  _598
REMARK  233  A    between atoms: _597  and  _600
REMARK  234  A    between atoms: _600  and  _601
REMARK  235  A    between atoms: _606  and  _608
REMARK  236  A    between atoms: _608  and  _609
REMARK  237  A    between atoms: _608  and  _611
REMARK  238  A    between atoms: _611  and  _612
REMARK  239  A    between atoms: _617  and  _618
REMARK                            x       y       z     vdW  Elec       q    Type
REMARK                         _______ _______ _______ _____ _____    ______ ____
ROOT
ATOM      1  O   HOH     1      14.285  -8.556  -4.134  0.00  0.00    +0.000 OA
ENDROOT
TORSDOF 0
REMARK  Name = ../refined-set-2016/2qbw/2qbw_pocket.pdb
REMARK  239 active torsions:
REMARK  status: ('A' for Active; 'I' for Inactive)
REMARK    1  A    between atoms: _1  and  _5
REMARK    2  A    between atoms: _5  and  _6
REMARK    3  A    between atoms: _5  and  _8
REMARK    4  A    between atoms: _8  and  _9
REMARK    5  A    between atoms: _12  and  _13
REMARK    6  A    between atoms: _18  and  _20
REMARK    7  A    between atoms: _20  and  _21
REMARK    8  A    between atoms: _20  and  _23
REMARK    9  A    between atoms: _23  and  _24
REMARK   10  A    between atoms: _24  and  _25
REMARK   11  A    between atoms: _28  and  _30
REMARK   12  A    between atoms: _30  and  _31
REMARK   13  A    between atoms: _30  and  _33
REMARK   14  A    between atoms: _33  and  _34
REMARK   15  A    between atoms: _37  and  _39
REMARK   16  A    between atoms: _39  and  _40
REMARK   17  A    between atoms: _42  and  _44
REMARK   18  A    between atoms: _44  and  _45
REMARK   19  A    between atoms: _44  and  _47
REMARK   20  A    between atoms: _47  and  _48
REMARK   21  A    between atoms: _54  and  _56
REMARK   22  A    between atoms: _56  and  _57
REMARK   23  A    between atoms: _56  and  _59
REMARK   24  A    between atoms: _59  and  _60
REMARK   25  A    between atoms: _62  and  _64
REMARK   26  A    between atoms: _64  and  _65
REMARK   27  A    between atoms: _64  and  _67
REMARK   28  A    between atoms: _67  and  _68
REMARK   29  A    between atoms: _71  and  _73
REMARK   30  A    between atoms: _73  and  _74
REMARK   31  A    between atoms: _73  and  _76
REMARK   32  A    between atoms: _76  and  _77
REMARK   33  A    between atoms: _79  and  _81
REMARK   34  A    between atoms: _81  and  _82
REMARK   35  A    between atoms: _84  and  _86
REMARK   36  A    between atoms: _86  and  _87
REMARK   37  A    between atoms: _89  and  _91
REMARK   38  A    between atoms: _91  and  _92
REMARK   39  A    between atoms: _94  and  _96
REMARK   40  A    between atoms: _96  and  _97
REMARK   41  A    between atoms: _96  and  _99
REMARK   42  A    between atoms: _99  and  _100
REMARK   43  A    between atoms: _100  and  _101
REMARK   44  A    between atoms: _101  and  _102
REMARK   45  A    between atoms: _111  and  _113
REMARK   46  A    between atoms: _113  and  _114
REMARK   47  A    between atoms: _116  and  _118
REMARK   48  A    between atoms: _118  and  _119
REMARK   49  A    between atoms: _118  and  _121
REMARK   50  A    between atoms: _121  and  _122
REMARK   51  A    between atoms: _128  and  _129
REMARK   52  A    between atoms: _134  and  _136
REMARK   53  A    between atoms: _136  and  _137
REMARK   54  A    between atoms: _136  and  _139
REMARK   55  A    between atoms: _139  and  _140
REMARK   56  A    between atoms: _146  and  _148
REMARK   57  A    between atoms: _148  and  _149
REMARK   58  A    between atoms: _148  and  _151
REMARK   59  A    between atoms: _151  and  _152
REMARK   60  A    between atoms: _155  and  _157
REMARK   61  A    between atoms: _157  and  _158
REMARK   62  A    between atoms: _157  and  _160
REMARK   63  A    between atoms: _160  and  _161
REMARK   64  A    between atoms: _167  and  _169
REMARK   65  A    between atoms: _169  and  _170
REMARK   66  A    between atoms: _169  and  _172
REMARK   67  A    between atoms: _175  and  _177
REMARK   68  A    between atoms: _177  and  _178
REMARK   69  A    between atoms: _177  and  _180
REMARK   70  A    between atoms: _180  and  _181
REMARK   71  A    between atoms: _184  and  _186
REMARK   72  A    between atoms: _186  and  _187
REMARK   73  A    between atoms: _186  and  _189
REMARK   74  A    between atoms: _189  and  _190
REMARK   75  A    between atoms: _190  and  _191
REMARK   76  A    between atoms: _191  and  _192
REMARK   77  A    between atoms: _201  and  _203
REMARK   78  A    between atoms: _203  and  _204
REMARK   79  A    between atoms: _203  and  _206
REMARK   80  A    between atoms: _209  and  _211
REMARK   81  A    between atoms: _211  and  _212
REMARK   82  A    between atoms: _211  and  _214
REMARK   83  A    between atoms: _214  and  _215
REMARK   84  A    between atoms: _215  and  _216
REMARK   85  A    between atoms: _222  and  _223
REMARK   86  A    between atoms: _229  and  _230
REMARK   87  A    between atoms: _235  and  _237
REMARK   88  A    between atoms: _237  and  _238
REMARK   89  A    between atoms: _241  and  _243
REMARK   90  A    between atoms: _243  and  _244
REMARK   91  A    between atoms: _243  and  _246
REMARK   92  A    between atoms: _246  and  _247
REMARK   93  A    between atoms: _250  and  _252
REMARK   94  A    between atoms: _252  and  _253
REMARK   95  A    between atoms: _252  and  _255
REMARK   96  A    between atoms: _255  and  _256
REMARK   97  A    between atoms: _259  and  _261
REMARK   98  A    between atoms: _261  and  _262
REMARK   99  A    between atoms: _261  and  _264
REMARK  100  A    between atoms: _264  and  _265
REMARK  101  A    between atoms: _271  and  _273
REMARK  102  A    between atoms: _273  and  _274
REMARK  103  A    between atoms: _273  and  _276
REMARK  104  A    between atoms: _276  and  _277
REMARK  105  A    between atoms: _282  and  _284
REMARK  106  A    between atoms: _284  and  _285
REMARK  107  A    between atoms: _287  and  _289
REMARK  108  A    between atoms: _289  and  _290
REMARK  109  A    between atoms: _293  and  _295
REMARK  110  A    between atoms: _295  and  _296
REMARK  111  A    between atoms: _295  and  _298
REMARK  112  A    between atoms: _301  and  _303
REMARK  113  A    between atoms: _303  and  _304
REMARK  114  A    between atoms: _303  and  _306
REMARK  115  A    between atoms: _306  and  _307
REMARK  116  A    between atoms: _309  and  _311
REMARK  117  A    between atoms: _311  and  _312
REMARK  118  A    between atoms: _311  and  _314
REMARK  119  A    between atoms: _314  and  _315
REMARK  120  A    between atoms: _318  and  _320
REMARK  121  A    between atoms: _320  and  _321
REMARK  122  A    between atoms: _320  and  _323
REMARK  123  A    between atoms: _323  and  _324
REMARK  124  A    between atoms: _327  and  _329
REMARK  125  A    between atoms: _329  and  _330
REMARK  126  A    between atoms: _329  and  _332
REMARK  127  A    between atoms: _332  and  _333
REMARK  128  A    between atoms: _333  and  _334
REMARK  129  A    between atoms: _334  and  _335
REMARK  130  A    between atoms: _335  and  _336
REMARK  131  A    between atoms: _340  and  _342
REMARK  132  A    between atoms: _342  and  _343
REMARK  133  A    between atoms: _342  and  _345
REMARK  134  A    between atoms: _345  and  _346
REMARK  135  A    between atoms: _349  and  _351
REMARK  136  A    between atoms: _351  and  _352
REMARK  137  A    between atoms: _351  and  _354
REMARK  138  A    between atoms: _354  and  _355
REMARK  139  A    between atoms: _361  and  _363
REMARK  140  A    between atoms: _363  and  _364
REMARK  141  A    between atoms: _363  and  _366
REMARK  142  A    between atoms: _369  and  _371
REMARK  143  A    between atoms: _371  and  _372
REMARK  144  A    between atoms: _371  and  _374
REMARK  145  A    between atoms: _374  and  _375
REMARK  146  A    between atoms: _378  and  _380
REMARK  147  A    between atoms: _380  and  _381
REMARK  148  A    between atoms: _380  and  _383
REMARK  149  A    between atoms: _386  and  _388
REMARK  150  A    between atoms: _388  and  _389
REMARK  151  A    between atoms: _388  and  _391
REMARK  152  A    between atoms: _391  and  _392
REMARK  153  A    between atoms: _392  and  _393
REMARK  154  A    between atoms: _393  and  _394
REMARK  155  A    between atoms: _394  and  _395
REMARK  156  A    between atoms: _399  and  _401
REMARK  157  A    between atoms: _401  and  _402
REMARK  158  A    between atoms: _401  and  _404
REMARK  159  A    between atoms: _404  and  _405
REMARK  160  A    between atoms: _408  and  _410
REMARK  161  A    between atoms: _410  and  _411
REMARK  162  A    between atoms: _410  and  _413
REMARK  163  A    between atoms: _413  and  _414
REMARK  164  A    between atoms: _419  and  _420
REMARK  165  A    between atoms: _422  and  _424
REMARK  166  A    between atoms: _424  and  _425
REMARK  167  A    between atoms: _424  and  _427
REMARK  168  A    between atoms: _427  and  _428
REMARK  169  A    between atoms: _433  and  _434
REMARK  170  A    between atoms: _436  and  _438
REMARK  171  A    between atoms: _438  and  _439
REMARK  172  A    between atoms: _441  and  _443
REMARK  173  A    between atoms: _443  and  _444
REMARK  174  A    between atoms: _443  and  _446
REMARK  175  A    between atoms: _449  and  _451
REMARK  176  A    between atoms: _451  and  _452
REMARK  177  A    between atoms: _451  and  _454
REMARK  178  A    between atoms: _454  and  _455
REMARK  179  A    between atoms: _457  and  _459
REMARK  180  A    between atoms: _459  and  _460
REMARK  181  A    between atoms: _459  and  _462
REMARK  182  A    between atoms: _462  and  _463
REMARK  183  A    between atoms: _468  and  _469
REMARK  184  A    between atoms: _471  and  _473
REMARK  185  A    between atoms: _473  and  _474
REMARK  186  A    between atoms: _473  and  _476
REMARK  187  A    between atoms: _476  and  _477
REMARK  188  A    between atoms: _482  and  _483
REMARK  189  A    between atoms: _485  and  _487
REMARK  190  A    between atoms: _487  and  _488
REMARK  191  A    between atoms: _487  and  _490
REMARK  192  A    between atoms: _490  and  _491
REMARK  193  A    between atoms: _494  and  _496
REMARK  194  A    between atoms: _496  and  _497
REMARK  195  A    between atoms: _496  and  _499
REMARK  196  A    between atoms: _503  and  _504
REMARK  197  A    between atoms: _509  and  _511
REMARK  198  A    between atoms: _511  and  _512
REMARK  199  A    between atoms: _511  and  _514
REMARK  200  A    between atoms: _514  and  _515
REMARK  201  A    between atoms: _520  and  _521
REMARK  202  A    between atoms: _523  and  _525
REMARK  203  A    between atoms: _525  and  _526
REMARK  204  A    between atoms: _525  and  _528
REMARK  205  A    between atoms: _528  and  _529
REMARK  206  A    between atoms: _534  and  _535
REMARK  207  A    between atoms: _537  and  _539
REMARK  208  A    between atoms: _539  and  _540
REMARK  209  A    between atoms: _539  and  _542
REMARK  210  A    between atoms: _542  and  _543
REMARK  211  A    between atoms: _545  and  _547
REMARK  212  A    between atoms: _547  and  _548
REMARK  213  A    between atoms: _547  and  _550
REMARK  214  A    between atoms: _550  and  _551
REMARK  215  A    between atoms: _554  and  _556
REMARK  216  A    between atoms: _556  and  _557
REMARK  217  A    between atoms: _556  and  _559
REMARK  218  A    between atoms: _559  and  _560
REMARK  219  A    between atoms: _565  and  _566
REMARK  220  A    between atoms: _568  and  _570
REMARK  221  A    between atoms: _570  and  _571
REMARK  222  A    between atoms: _570  and  _573
REMARK  223  A    between atoms: _573  and  _574
REMARK  224  A    between atoms: _579  and  _580
REMARK  225  A    between atoms: _582  and  _584
REMARK  226  A    between atoms: _584  and  _585
REMARK  227  A    between atoms: _587  and  _589
REMARK  228  A    between atoms: _589  and  _590
REMARK  229  A    between atoms: _589  and  _592
REMARK  230  A    between atoms: _592  and  _593
REMARK  231  A    between atoms: _595  and  _597
REMARK  232  A    between atoms: _597  and  _598
REMARK  233  A    between atoms: _597  and  _600
REMARK  234  A    between atoms: _600  and  _601
REMARK  235  A    between atoms: _606  and  _608
REMARK  236  A    between atoms: _608  and  _609
REMARK  237  A    between atoms: _608  and  _611
REMARK  238  A    between atoms: _611  and  _612
REMARK  239  A    between atoms: _617  and  _618
REMARK                            x       y       z     vdW  Elec       q    Type
REMARK                         _______ _______ _______ _____ _____    ______ ____
ROOT
ATOM      1  O   HOH     1       3.204 -16.434  -0.341  0.00  0.00    +0.000 OA
ENDROOT
TORSDOF 0
REMARK  Name = ../refined-set-2016/2qbw/2qbw_pocket.pdb
REMARK  239 active torsions:
REMARK  status: ('A' for Active; 'I' for Inactive)
REMARK    1  A    between atoms: _1  and  _5
REMARK    2  A    between atoms: _5  and  _6
REMARK    3  A    between atoms: _5  and  _8
REMARK    4  A    between atoms: _8  and  _9
REMARK    5  A    between atoms: _12  and  _13
REMARK    6  A    between atoms: _18  and  _20
REMARK    7  A    between atoms: _20  and  _21
REMARK    8  A    between atoms: _20  and  _23
REMARK    9  A    between atoms: _23  and  _24
REMARK   10  A    between atoms: _24  and  _25
REMARK   11  A    between atoms: _28  and  _30
REMARK   12  A    between atoms: _30  and  _31
REMARK   13  A    between atoms: _30  and  _33
REMARK   14  A    between atoms: _33  and  _34
REMARK   15  A    between atoms: _37  and  _39
REMARK   16  A    between atoms: _39  and  _40
REMARK   17  A    between atoms: _42  and  _44
REMARK   18  A    between atoms: _44  and  _45
REMARK   19  A    between atoms: _44  and  _47
REMARK   20  A    between atoms: _47  and  _48
REMARK   21  A    between atoms: _54  and  _56
REMARK   22  A    between atoms: _56  and  _57
REMARK   23  A    between atoms: _56  and  _59
REMARK   24  A    between atoms: _59  and  _60
REMARK   25  A    between atoms: _62  and  _64
REMARK   26  A    between atoms: _64  and  _65
REMARK   27  A    between atoms: _64  and  _67
REMARK   28  A    between atoms: _67  and  _68
REMARK   29  A    between atoms: _71  and  _73
REMARK   30  A    between atoms: _73  and  _74
REMARK   31  A    between atoms: _73  and  _76
REMARK   32  A    between atoms: _76  and  _77
REMARK   33  A    between atoms: _79  and  _81
REMARK   34  A    between atoms: _81  and  _82
REMARK   35  A    between atoms: _84  and  _86
REMARK   36  A    between atoms: _86  and  _87
REMARK   37  A    between atoms: _89  and  _91
REMARK   38  A    between atoms: _91  and  _92
REMARK   39  A    between atoms: _94  and  _96
REMARK   40  A    between atoms: _96  and  _97
REMARK   41  A    between atoms: _96  and  _99
REMARK   42  A    between atoms: _99  and  _100
REMARK   43  A    between atoms: _100  and  _101
REMARK   44  A    between atoms: _101  and  _102
REMARK   45  A    between atoms: _111  and  _113
REMARK   46  A    between atoms: _113  and  _114
REMARK   47  A    between atoms: _116  and  _118
REMARK   48  A    between atoms: _118  and  _119
REMARK   49  A    between atoms: _118  and  _121
REMARK   50  A    between atoms: _121  and  _122
REMARK   51  A    between atoms: _128  and  _129
REMARK   52  A    between atoms: _134  and  _136
REMARK   53  A    between atoms: _136  and  _137
REMARK   54  A    between atoms: _136  and  _139
REMARK   55  A    between atoms: _139  and  _140
REMARK   56  A    between atoms: _146  and  _148
REMARK   57  A    between atoms: _148  and  _149
REMARK   58  A    between atoms: _148  and  _151
REMARK   59  A    between atoms: _151  and  _152
REMARK   60  A    between atoms: _155  and  _157
REMARK   61  A    between atoms: _157  and  _158
REMARK   62  A    between atoms: _157  and  _160
REMARK   63  A    between atoms: _160  and  _161
REMARK   64  A    between atoms: _167  and  _169
REMARK   65  A    between atoms: _169  and  _170
REMARK   66  A    between atoms: _169  and  _172
REMARK   67  A    between atoms: _175  and  _177
REMARK   68  A    between atoms: _177  and  _178
REMARK   69  A    between atoms: _177  and  _180
REMARK   70  A    between atoms: _180  and  _181
REMARK   71  A    between atoms: _184  and  _186
REMARK   72  A    between atoms: _186  and  _187
REMARK   73  A    between atoms: _186  and  _189
REMARK   74  A    between atoms: _189  and  _190
REMARK   75  A    between atoms: _190  and  _191
REMARK   76  A    between atoms: _191  and  _192
REMARK   77  A    between atoms: _201  and  _203
REMARK   78  A    between atoms: _203  and  _204
REMARK   79  A    between atoms: _203  and  _206
REMARK   80  A    between atoms: _209  and  _211
REMARK   81  A    between atoms: _211  and  _212
REMARK   82  A    between atoms: _211  and  _214
REMARK   83  A    between atoms: _214  and  _215
REMARK   84  A    between atoms: _215  and  _216
REMARK   85  A    between atoms: _222  and  _223
REMARK   86  A    between atoms: _229  and  _230
REMARK   87  A    between atoms: _235  and  _237
REMARK   88  A    between atoms: _237  and  _238
REMARK   89  A    between atoms: _241  and  _243
REMARK   90  A    between atoms: _243  and  _244
REMARK   91  A    between atoms: _243  and  _246
REMARK   92  A    between atoms: _246  and  _247
REMARK   93  A    between atoms: _250  and  _252
REMARK   94  A    between atoms: _252  and  _253
REMARK   95  A    between atoms: _252  and  _255
REMARK   96  A    between atoms: _255  and  _256
REMARK   97  A    between atoms: _259  and  _261
REMARK   98  A    between atoms: _261  and  _262
REMARK   99  A    between atoms: _261  and  _264
REMARK  100  A    between atoms: _264  and  _265
REMARK  101  A    between atoms: _271  and  _273
REMARK  102  A    between atoms: _273  and  _274
REMARK  103  A    between atoms: _273  and  _276
REMARK  104  A    between atoms: _276  and  _277
REMARK  105  A    between atoms: _282  and  _284
REMARK  106  A    between atoms: _284  and  _285
REMARK  107  A    between atoms: _287  and  _289
REMARK  108  A    between atoms: _289  and  _290
REMARK  109  A    between atoms: _293  and  _295
REMARK  110  A    between atoms: _295  and  _296
REMARK  111  A    between atoms: _295  and  _298
REMARK  112  A    between atoms: _301  and  _303
REMARK  113  A    between atoms: _303  and  _304
REMARK  114  A    between atoms: _303  and  _306
REMARK  115  A    between atoms: _306  and  _307
REMARK  116  A    between atoms: _309  and  _311
REMARK  117  A    between atoms: _311  and  _312
REMARK  118  A    between atoms: _311  and  _314
REMARK  119  A    between atoms: _314  and  _315
REMARK  120  A    between atoms: _318  and  _320
REMARK  121  A    between atoms: _320  and  _321
REMARK  122  A    between atoms: _320  and  _323
REMARK  123  A    between atoms: _323  and  _324
REMARK  124  A    between atoms: _327  and  _329
REMARK  125  A    between atoms: _329  and  _330
REMARK  126  A    between atoms: _329  and  _332
REMARK  127  A    between atoms: _332  and  _333
REMARK  128  A    between atoms: _333  and  _334
REMARK  129  A    between atoms: _334  and  _335
REMARK  130  A    between atoms: _335  and  _336
REMARK  131  A    between atoms: _340  and  _342
REMARK  132  A    between atoms: _342  and  _343
REMARK  133  A    between atoms: _342  and  _345
REMARK  134  A    between atoms: _345  and  _346
REMARK  135  A    between atoms: _349  and  _351
REMARK  136  A    between atoms: _351  and  _352
REMARK  137  A    between atoms: _351  and  _354
REMARK  138  A    between atoms: _354  and  _355
REMARK  139  A    between atoms: _361  and  _363
REMARK  140  A    between atoms: _363  and  _364
REMARK  141  A    between atoms: _363  and  _366
REMARK  142  A    between atoms: _369  and  _371
REMARK  143  A    between atoms: _371  and  _372
REMARK  144  A    between atoms: _371  and  _374
REMARK  145  A    between atoms: _374  and  _375
REMARK  146  A    between atoms: _378  and  _380
REMARK  147  A    between atoms: _380  and  _381
REMARK  148  A    between atoms: _380  and  _383
REMARK  149  A    between atoms: _386  and  _388
REMARK  150  A    between atoms: _388  and  _389
REMARK  151  A    between atoms: _388  and  _391
REMARK  152  A    between atoms: _391  and  _392
REMARK  153  A    between atoms: _392  and  _393
REMARK  154  A    between atoms: _393  and  _394
REMARK  155  A    between atoms: _394  and  _395
REMARK  156  A    between atoms: _399  and  _401
REMARK  157  A    between atoms: _401  and  _402
REMARK  158  A    between atoms: _401  and  _404
REMARK  159  A    between atoms: _404  and  _405
REMARK  160  A    between atoms: _408  and  _410
REMARK  161  A    between atoms: _410  and  _411
REMARK  162  A    between atoms: _410  and  _413
REMARK  163  A    between atoms: _413  and  _414
REMARK  164  A    between atoms: _419  and  _420
REMARK  165  A    between atoms: _422  and  _424
REMARK  166  A    between atoms: _424  and  _425
REMARK  167  A    between atoms: _424  and  _427
REMARK  168  A    between atoms: _427  and  _428
REMARK  169  A    between atoms: _433  and  _434
REMARK  170  A    between atoms: _436  and  _438
REMARK  171  A    between atoms: _438  and  _439
REMARK  172  A    between atoms: _441  and  _443
REMARK  173  A    between atoms: _443  and  _444
REMARK  174  A    between atoms: _443  and  _446
REMARK  175  A    between atoms: _449  and  _451
REMARK  176  A    between atoms: _451  and  _452
REMARK  177  A    between atoms: _451  and  _454
REMARK  178  A    between atoms: _454  and  _455
REMARK  179  A    between atoms: _457  and  _459
REMARK  180  A    between atoms: _459  and  _460
REMARK  181  A    between atoms: _459  and  _462
REMARK  182  A    between atoms: _462  and  _463
REMARK  183  A    between atoms: _468  and  _469
REMARK  184  A    between atoms: _471  and  _473
REMARK  185  A    between atoms: _473  and  _474
REMARK  186  A    between atoms: _473  and  _476
REMARK  187  A    between atoms: _476  and  _477
REMARK  188  A    between atoms: _482  and  _483
REMARK  189  A    between atoms: _485  and  _487
REMARK  190  A    between atoms: _487  and  _488
REMARK  191  A    between atoms: _487  and  _490
REMARK  192  A    between atoms: _490  and  _491
REMARK  193  A    between atoms: _494  and  _496
REMARK  194  A    between atoms: _496  and  _497
REMARK  195  A    between atoms: _496  and  _499
REMARK  196  A    between atoms: _503  and  _504
REMARK  197  A    between atoms: _509  and  _511
REMARK  198  A    between atoms: _511  and  _512
REMARK  199  A    between atoms: _511  and  _514
REMARK  200  A    between atoms: _514  and  _515
REMARK  201  A    between atoms: _520  and  _521
REMARK  202  A    between atoms: _523  and  _525
REMARK  203  A    between atoms: _525  and  _526
REMARK  204  A    between atoms: _525  and  _528
REMARK  205  A    between atoms: _528  and  _529
REMARK  206  A    between atoms: _534  and  _535
REMARK  207  A    between atoms: _537  and  _539
REMARK  208  A    between atoms: _539  and  _540
REMARK  209  A    between atoms: _539  and  _542
REMARK  210  A    between atoms: _542  and  _543
REMARK  211  A    between atoms: _545  and  _547
REMARK  212  A    between atoms: _547  and  _548
REMARK  213  A    between atoms: _547  and  _550
REMARK  214  A    between atoms: _550  and  _551
REMARK  215  A    between atoms: _554  and  _556
REMARK  216  A    between atoms: _556  and  _557
REMARK  217  A    between atoms: _556  and  _559
REMARK  218  A    between atoms: _559  and  _560
REMARK  219  A    between atoms: _565  and  _566
REMARK  220  A    between atoms: _568  and  _570
REMARK  221  A    between atoms: _570  and  _571
REMARK  222  A    between atoms: _570  and  _573
REMARK  223  A    between atoms: _573  and  _574
REMARK  224  A    between atoms: _579  and  _580
REMARK  225  A    between atoms: _582  and  _584
REMARK  226  A    between atoms: _584  and  _585
REMARK  227  A    between atoms: _587  and  _589
REMARK  228  A    between atoms: _589  and  _590
REMARK  229  A    between atoms: _589  and  _592
REMARK  230  A    between atoms: _592  and  _593
REMARK  231  A    between atoms: _595  and  _597
REMARK  232  A    between atoms: _597  and  _598
REMARK  233  A    between atoms: _597  and  _600
REMARK  234  A    between atoms: _600  and  _601
REMARK  235  A    between atoms: _606  and  _608
REMARK  236  A    between atoms: _608  and  _609
REMARK  237  A    between atoms: _608  and  _611
REMARK  238  A    between atoms: _611  and  _612
REMARK  239  A    between atoms: _617  and  _618
REMARK                            x       y       z     vdW  Elec       q    Type
REMARK                         _______ _______ _______ _____ _____    ______ ____
ROOT
ATOM      1  O   HOH     1      -0.007 -16.722 -13.722  0.00  0.00    +0.000 OA
ENDROOT
TORSDOF 0
REMARK  Name = ../refined-set-2016/2qbw/2qbw_pocket.pdb
REMARK  239 active torsions:
REMARK  status: ('A' for Active; 'I' for Inactive)
REMARK    1  A    between atoms: _1  and  _5
REMARK    2  A    between atoms: _5  and  _6
REMARK    3  A    between atoms: _5  and  _8
REMARK    4  A    between atoms: _8  and  _9
REMARK    5  A    between atoms: _12  and  _13
REMARK    6  A    between atoms: _18  and  _20
REMARK    7  A    between atoms: _20  and  _21
REMARK    8  A    between atoms: _20  and  _23
REMARK    9  A    between atoms: _23  and  _24
REMARK   10  A    between atoms: _24  and  _25
REMARK   11  A    between atoms: _28  and  _30
REMARK   12  A    between atoms: _30  and  _31
REMARK   13  A    between atoms: _30  and  _33
REMARK   14  A    between atoms: _33  and  _34
REMARK   15  A    between atoms: _37  and  _39
REMARK   16  A    between atoms: _39  and  _40
REMARK   17  A    between atoms: _42  and  _44
REMARK   18  A    between atoms: _44  and  _45
REMARK   19  A    between atoms: _44  and  _47
REMARK   20  A    between atoms: _47  and  _48
REMARK   21  A    between atoms: _54  and  _56
REMARK   22  A    between atoms: _56  and  _57
REMARK   23  A    between atoms: _56  and  _59
REMARK   24  A    between atoms: _59  and  _60
REMARK   25  A    between atoms: _62  and  _64
REMARK   26  A    between atoms: _64  and  _65
REMARK   27  A    between atoms: _64  and  _67
REMARK   28  A    between atoms: _67  and  _68
REMARK   29  A    between atoms: _71  and  _73
REMARK   30  A    between atoms: _73  and  _74
REMARK   31  A    between atoms: _73  and  _76
REMARK   32  A    between atoms: _76  and  _77
REMARK   33  A    between atoms: _79  and  _81
REMARK   34  A    between atoms: _81  and  _82
REMARK   35  A    between atoms: _84  and  _86
REMARK   36  A    between atoms: _86  and  _87
REMARK   37  A    between atoms: _89  and  _91
REMARK   38  A    between atoms: _91  and  _92
REMARK   39  A    between atoms: _94  and  _96
REMARK   40  A    between atoms: _96  and  _97
REMARK   41  A    between atoms: _96  and  _99
REMARK   42  A    between atoms: _99  and  _100
REMARK   43  A    between atoms: _100  and  _101
REMARK   44  A    between atoms: _101  and  _102
REMARK   45  A    between atoms: _111  and  _113
REMARK   46  A    between atoms: _113  and  _114
REMARK   47  A    between atoms: _116  and  _118
REMARK   48  A    between atoms: _118  and  _119
REMARK   49  A    between atoms: _118  and  _121
REMARK   50  A    between atoms: _121  and  _122
REMARK   51  A    between atoms: _128  and  _129
REMARK   52  A    between atoms: _134  and  _136
REMARK   53  A    between atoms: _136  and  _137
REMARK   54  A    between atoms: _136  and  _139
REMARK   55  A    between atoms: _139  and  _140
REMARK   56  A    between atoms: _146  and  _148
REMARK   57  A    between atoms: _148  and  _149
REMARK   58  A    between atoms: _148  and  _151
REMARK   59  A    between atoms: _151  and  _152
REMARK   60  A    between atoms: _155  and  _157
REMARK   61  A    between atoms: _157  and  _158
REMARK   62  A    between atoms: _157  and  _160
REMARK   63  A    between atoms: _160  and  _161
REMARK   64  A    between atoms: _167  and  _169
REMARK   65  A    between atoms: _169  and  _170
REMARK   66  A    between atoms: _169  and  _172
REMARK   67  A    between atoms: _175  and  _177
REMARK   68  A    between atoms: _177  and  _178
REMARK   69  A    between atoms: _177  and  _180
REMARK   70  A    between atoms: _180  and  _181
REMARK   71  A    between atoms: _184  and  _186
REMARK   72  A    between atoms: _186  and  _187
REMARK   73  A    between atoms: _186  and  _189
REMARK   74  A    between atoms: _189  and  _190
REMARK   75  A    between atoms: _190  and  _191
REMARK   76  A    between atoms: _191  and  _192
REMARK   77  A    between atoms: _201  and  _203
REMARK   78  A    between atoms: _203  and  _204
REMARK   79  A    between atoms: _203  and  _206
REMARK   80  A    between atoms: _209  and  _211
REMARK   81  A    between atoms: _211  and  _212
REMARK   82  A    between atoms: _211  and  _214
REMARK   83  A    between atoms: _214  and  _215
REMARK   84  A    between atoms: _215  and  _216
REMARK   85  A    between atoms: _222  and  _223
REMARK   86  A    between atoms: _229  and  _230
REMARK   87  A    between atoms: _235  and  _237
REMARK   88  A    between atoms: _237  and  _238
REMARK   89  A    between atoms: _241  and  _243
REMARK   90  A    between atoms: _243  and  _244
REMARK   91  A    between atoms: _243  and  _246
REMARK   92  A    between atoms: _246  and  _247
REMARK   93  A    between atoms: _250  and  _252
REMARK   94  A    between atoms: _252  and  _253
REMARK   95  A    between atoms: _252  and  _255
REMARK   96  A    between atoms: _255  and  _256
REMARK   97  A    between atoms: _259  and  _261
REMARK   98  A    between atoms: _261  and  _262
REMARK   99  A    between atoms: _261  and  _264
REMARK  100  A    between atoms: _264  and  _265
REMARK  101  A    between atoms: _271  and  _273
REMARK  102  A    between atoms: _273  and  _274
REMARK  103  A    between atoms: _273  and  _276
REMARK  104  A    between atoms: _276  and  _277
REMARK  105  A    between atoms: _282  and  _284
REMARK  106  A    between atoms: _284  and  _285
REMARK  107  A    between atoms: _287  and  _289
REMARK  108  A    between atoms: _289  and  _290
REMARK  109  A    between atoms: _293  and  _295
REMARK  110  A    between atoms: _295  and  _296
REMARK  111  A    between atoms: _295  and  _298
REMARK  112  A    between atoms: _301  and  _303
REMARK  113  A    between atoms: _303  and  _304
REMARK  114  A    between atoms: _303  and  _306
REMARK  115  A    between atoms: _306  and  _307
REMARK  116  A    between atoms: _309  and  _311
REMARK  117  A    between atoms: _311  and  _312
REMARK  118  A    between atoms: _311  and  _314
REMARK  119  A    between atoms: _314  and  _315
REMARK  120  A    between atoms: _318  and  _320
REMARK  121  A    between atoms: _320  and  _321
REMARK  122  A    between atoms: _320  and  _323
REMARK  123  A    between atoms: _323  and  _324
REMARK  124  A    between atoms: _327  and  _329
REMARK  125  A    between atoms: _329  and  _330
REMARK  126  A    between atoms: _329  and  _332
REMARK  127  A    between atoms: _332  and  _333
REMARK  128  A    between atoms: _333  and  _334
REMARK  129  A    between atoms: _334  and  _335
REMARK  130  A    between atoms: _335  and  _336
REMARK  131  A    between atoms: _340  and  _342
REMARK  132  A    between atoms: _342  and  _343
REMARK  133  A    between atoms: _342  and  _345
REMARK  134  A    between atoms: _345  and  _346
REMARK  135  A    between atoms: _349  and  _351
REMARK  136  A    between atoms: _351  and  _352
REMARK  137  A    between atoms: _351  and  _354
REMARK  138  A    between atoms: _354  and  _355
REMARK  139  A    between atoms: _361  and  _363
REMARK  140  A    between atoms: _363  and  _364
REMARK  141  A    between atoms: _363  and  _366
REMARK  142  A    between atoms: _369  and  _371
REMARK  143  A    between atoms: _371  and  _372
REMARK  144  A    between atoms: _371  and  _374
REMARK  145  A    between atoms: _374  and  _375
REMARK  146  A    between atoms: _378  and  _380
REMARK  147  A    between atoms: _380  and  _381
REMARK  148  A    between atoms: _380  and  _383
REMARK  149  A    between atoms: _386  and  _388
REMARK  150  A    between atoms: _388  and  _389
REMARK  151  A    between atoms: _388  and  _391
REMARK  152  A    between atoms: _391  and  _392
REMARK  153  A    between atoms: _392  and  _393
REMARK  154  A    between atoms: _393  and  _394
REMARK  155  A    between atoms: _394  and  _395
REMARK  156  A    between atoms: _399  and  _401
REMARK  157  A    between atoms: _401  and  _402
REMARK  158  A    between atoms: _401  and  _404
REMARK  159  A    between atoms: _404  and  _405
REMARK  160  A    between atoms: _408  and  _410
REMARK  161  A    between atoms: _410  and  _411
REMARK  162  A    between atoms: _410  and  _413
REMARK  163  A    between atoms: _413  and  _414
REMARK  164  A    between atoms: _419  and  _420
REMARK  165  A    between atoms: _422  and  _424
REMARK  166  A    between atoms: _424  and  _425
REMARK  167  A    between atoms: _424  and  _427
REMARK  168  A    between atoms: _427  and  _428
REMARK  169  A    between atoms: _433  and  _434
REMARK  170  A    between atoms: _436  and  _438
REMARK  171  A    between atoms: _438  and  _439
REMARK  172  A    between atoms: _441  and  _443
REMARK  173  A    between atoms: _443  and  _444
REMARK  174  A    between atoms: _443  and  _446
REMARK  175  A    between atoms: _449  and  _451
REMARK  176  A    between atoms: _451  and  _452
REMARK  177  A    between atoms: _451  and  _454
REMARK  178  A    between atoms: _454  and  _455
REMARK  179  A    between atoms: _457  and  _459
REMARK  180  A    between atoms: _459  and  _460
REMARK  181  A    between atoms: _459  and  _462
REMARK  182  A    between atoms: _462  and  _463
REMARK  183  A    between atoms: _468  and  _469
REMARK  184  A    between atoms: _471  and  _473
REMARK  185  A    between atoms: _473  and  _474
REMARK  186  A    between atoms: _473  and  _476
REMARK  187  A    between atoms: _476  and  _477
REMARK  188  A    between atoms: _482  and  _483
REMARK  189  A    between atoms: _485  and  _487
REMARK  190  A    between atoms: _487  and  _488
REMARK  191  A    between atoms: _487  and  _490
REMARK  192  A    between atoms: _490  and  _491
REMARK  193  A    between atoms: _494  and  _496
REMARK  194  A    between atoms: _496  and  _497
REMARK  195  A    between atoms: _496  and  _499
REMARK  196  A    between atoms: _503  and  _504
REMARK  197  A    between atoms: _509  and  _511
REMARK  198  A    between atoms: _511  and  _512
REMARK  199  A    between atoms: _511  and  _514
REMARK  200  A    between atoms: _514  and  _515
REMARK  201  A    between atoms: _520  and  _521
REMARK  202  A    between atoms: _523  and  _525
REMARK  203  A    between atoms: _525  and  _526
REMARK  204  A    between atoms: _525  and  _528
REMARK  205  A    between atoms: _528  and  _529
REMARK  206  A    between atoms: _534  and  _535
REMARK  207  A    between atoms: _537  and  _539
REMARK  208  A    between atoms: _539  and  _540
REMARK  209  A    between atoms: _539  and  _542
REMARK  210  A    between atoms: _542  and  _543
REMARK  211  A    between atoms: _545  and  _547
REMARK  212  A    between atoms: _547  and  _548
REMARK  213  A    between atoms: _547  and  _550
REMARK  214  A    between atoms: _550  and  _551
REMARK  215  A    between atoms: _554  and  _556
REMARK  216  A    between atoms: _556  and  _557
REMARK  217  A    between atoms: _556  and  _559
REMARK  218  A    between atoms: _559  and  _560
REMARK  219  A    between atoms: _565  and  _566
REMARK  220  A    between atoms: _568  and  _570
REMARK  221  A    between atoms: _570  and  _571
REMARK  222  A    between atoms: _570  and  _573
REMARK  223  A    between atoms: _573  and  _574
REMARK  224  A    between atoms: _579  and  _580
REMARK  225  A    between atoms: _582  and  _584
REMARK  226  A    between atoms: _584  and  _585
REMARK  227  A    between atoms: _587  and  _589
REMARK  228  A    between atoms: _589  and  _590
REMARK  229  A    between atoms: _589  and  _592
REMARK  230  A    between atoms: _592  and  _593
REMARK  231  A    between atoms: _595  and  _597
REMARK  232  A    between atoms: _597  and  _598
REMARK  233  A    between atoms: _597  and  _600
REMARK  234  A    between atoms: _600  and  _601
REMARK  235  A    between atoms: _606  and  _608
REMARK  236  A    between atoms: _608  and  _609
REMARK  237  A    between atoms: _608  and  _611
REMARK  238  A    between atoms: _611  and  _612
REMARK  239  A    between atoms: _617  and  _618
REMARK                            x       y       z     vdW  Elec       q    Type
REMARK                         _______ _______ _______ _____ _____    ______ ____
ROOT
ATOM      1  O   HOH     1      -6.294  -9.374 -10.464  0.00  0.00    +0.000 OA
ENDROOT
TORSDOF 0
REMARK  Name = ../refined-set-2016/2qbw/2qbw_pocket.pdb
REMARK  239 active torsions:
REMARK  status: ('A' for Active; 'I' for Inactive)
REMARK    1  A    between atoms: _1  and  _5
REMARK    2  A    between atoms: _5  and  _6
REMARK    3  A    between atoms: _5  and  _8
REMARK    4  A    between atoms: _8  and  _9
REMARK    5  A    between atoms: _12  and  _13
REMARK    6  A    between atoms: _18  and  _20
REMARK    7  A    between atoms: _20  and  _21
REMARK    8  A    between atoms: _20  and  _23
REMARK    9  A    between atoms: _23  and  _24
REMARK   10  A    between atoms: _24  and  _25
REMARK   11  A    between atoms: _28  and  _30
REMARK   12  A    between atoms: _30  and  _31
REMARK   13  A    between atoms: _30  and  _33
REMARK   14  A    between atoms: _33  and  _34
REMARK   15  A    between atoms: _37  and  _39
REMARK   16  A    between atoms: _39  and  _40
REMARK   17  A    between atoms: _42  and  _44
REMARK   18  A    between atoms: _44  and  _45
REMARK   19  A    between atoms: _44  and  _47
REMARK   20  A    between atoms: _47  and  _48
REMARK   21  A    between atoms: _54  and  _56
REMARK   22  A    between atoms: _56  and  _57
REMARK   23  A    between atoms: _56  and  _59
REMARK   24  A    between atoms: _59  and  _60
REMARK   25  A    between atoms: _62  and  _64
REMARK   26  A    between atoms: _64  and  _65
REMARK   27  A    between atoms: _64  and  _67
REMARK   28  A    between atoms: _67  and  _68
REMARK   29  A    between atoms: _71  and  _73
REMARK   30  A    between atoms: _73  and  _74
REMARK   31  A    between atoms: _73  and  _76
REMARK   32  A    between atoms: _76  and  _77
REMARK   33  A    between atoms: _79  and  _81
REMARK   34  A    between atoms: _81  and  _82
REMARK   35  A    between atoms: _84  and  _86
REMARK   36  A    between atoms: _86  and  _87
REMARK   37  A    between atoms: _89  and  _91
REMARK   38  A    between atoms: _91  and  _92
REMARK   39  A    between atoms: _94  and  _96
REMARK   40  A    between atoms: _96  and  _97
REMARK   41  A    between atoms: _96  and  _99
REMARK   42  A    between atoms: _99  and  _100
REMARK   43  A    between atoms: _100  and  _101
REMARK   44  A    between atoms: _101  and  _102
REMARK   45  A    between atoms: _111  and  _113
REMARK   46  A    between atoms: _113  and  _114
REMARK   47  A    between atoms: _116  and  _118
REMARK   48  A    between atoms: _118  and  _119
REMARK   49  A    between atoms: _118  and  _121
REMARK   50  A    between atoms: _121  and  _122
REMARK   51  A    between atoms: _128  and  _129
REMARK   52  A    between atoms: _134  and  _136
REMARK   53  A    between atoms: _136  and  _137
REMARK   54  A    between atoms: _136  and  _139
REMARK   55  A    between atoms: _139  and  _140
REMARK   56  A    between atoms: _146  and  _148
REMARK   57  A    between atoms: _148  and  _149
REMARK   58  A    between atoms: _148  and  _151
REMARK   59  A    between atoms: _151  and  _152
REMARK   60  A    between atoms: _155  and  _157
REMARK   61  A    between atoms: _157  and  _158
REMARK   62  A    between atoms: _157  and  _160
REMARK   63  A    between atoms: _160  and  _161
REMARK   64  A    between atoms: _167  and  _169
REMARK   65  A    between atoms: _169  and  _170
REMARK   66  A    between atoms: _169  and  _172
REMARK   67  A    between atoms: _175  and  _177
REMARK   68  A    between atoms: _177  and  _178
REMARK   69  A    between atoms: _177  and  _180
REMARK   70  A    between atoms: _180  and  _181
REMARK   71  A    between atoms: _184  and  _186
REMARK   72  A    between atoms: _186  and  _187
REMARK   73  A    between atoms: _186  and  _189
REMARK   74  A    between atoms: _189  and  _190
REMARK   75  A    between atoms: _190  and  _191
REMARK   76  A    between atoms: _191  and  _192
REMARK   77  A    between atoms: _201  and  _203
REMARK   78  A    between atoms: _203  and  _204
REMARK   79  A    between atoms: _203  and  _206
REMARK   80  A    between atoms: _209  and  _211
REMARK   81  A    between atoms: _211  and  _212
REMARK   82  A    between atoms: _211  and  _214
REMARK   83  A    between atoms: _214  and  _215
REMARK   84  A    between atoms: _215  and  _216
REMARK   85  A    between atoms: _222  and  _223
REMARK   86  A    between atoms: _229  and  _230
REMARK   87  A    between atoms: _235  and  _237
REMARK   88  A    between atoms: _237  and  _238
REMARK   89  A    between atoms: _241  and  _243
REMARK   90  A    between atoms: _243  and  _244
REMARK   91  A    between atoms: _243  and  _246
REMARK   92  A    between atoms: _246  and  _247
REMARK   93  A    between atoms: _250  and  _252
REMARK   94  A    between atoms: _252  and  _253
REMARK   95  A    between atoms: _252  and  _255
REMARK   96  A    between atoms: _255  and  _256
REMARK   97  A    between atoms: _259  and  _261
REMARK   98  A    between atoms: _261  and  _262
REMARK   99  A    between atoms: _261  and  _264
REMARK  100  A    between atoms: _264  and  _265
REMARK  101  A    between atoms: _271  and  _273
REMARK  102  A    between atoms: _273  and  _274
REMARK  103  A    between atoms: _273  and  _276
REMARK  104  A    between atoms: _276  and  _277
REMARK  105  A    between atoms: _282  and  _284
REMARK  106  A    between atoms: _284  and  _285
REMARK  107  A    between atoms: _287  and  _289
REMARK  108  A    between atoms: _289  and  _290
REMARK  109  A    between atoms: _293  and  _295
REMARK  110  A    between atoms: _295  and  _296
REMARK  111  A    between atoms: _295  and  _298
REMARK  112  A    between atoms: _301  and  _303
REMARK  113  A    between atoms: _303  and  _304
REMARK  114  A    between atoms: _303  and  _306
REMARK  115  A    between atoms: _306  and  _307
REMARK  116  A    between atoms: _309  and  _311
REMARK  117  A    between atoms: _311  and  _312
REMARK  118  A    between atoms: _311  and  _314
REMARK  119  A    between atoms: _314  and  _315
REMARK  120  A    between atoms: _318  and  _320
REMARK  121  A    between atoms: _320  and  _321
REMARK  122  A    between atoms: _320  and  _323
REMARK  123  A    between atoms: _323  and  _324
REMARK  124  A    between atoms: _327  and  _329
REMARK  125  A    between atoms: _329  and  _330
REMARK  126  A    between atoms: _329  and  _332
REMARK  127  A    between atoms: _332  and  _333
REMARK  128  A    between atoms: _333  and  _334
REMARK  129  A    between atoms: _334  and  _335
REMARK  130  A    between atoms: _335  and  _336
REMARK  131  A    between atoms: _340  and  _342
REMARK  132  A    between atoms: _342  and  _343
REMARK  133  A    between atoms: _342  and  _345
REMARK  134  A    between atoms: _345  and  _346
REMARK  135  A    between atoms: _349  and  _351
REMARK  136  A    between atoms: _351  and  _352
REMARK  137  A    between atoms: _351  and  _354
REMARK  138  A    between atoms: _354  and  _355
REMARK  139  A    between atoms: _361  and  _363
REMARK  140  A    between atoms: _363  and  _364
REMARK  141  A    between atoms: _363  and  _366
REMARK  142  A    between atoms: _369  and  _371
REMARK  143  A    between atoms: _371  and  _372
REMARK  144  A    between atoms: _371  and  _374
REMARK  145  A    between atoms: _374  and  _375
REMARK  146  A    between atoms: _378  and  _380
REMARK  147  A    between atoms: _380  and  _381
REMARK  148  A    between atoms: _380  and  _383
REMARK  149  A    between atoms: _386  and  _388
REMARK  150  A    between atoms: _388  and  _389
REMARK  151  A    between atoms: _388  and  _391
REMARK  152  A    between atoms: _391  and  _392
REMARK  153  A    between atoms: _392  and  _393
REMARK  154  A    between atoms: _393  and  _394
REMARK  155  A    between atoms: _394  and  _395
REMARK  156  A    between atoms: _399  and  _401
REMARK  157  A    between atoms: _401  and  _402
REMARK  158  A    between atoms: _401  and  _404
REMARK  159  A    between atoms: _404  and  _405
REMARK  160  A    between atoms: _408  and  _410
REMARK  161  A    between atoms: _410  and  _411
REMARK  162  A    between atoms: _410  and  _413
REMARK  163  A    between atoms: _413  and  _414
REMARK  164  A    between atoms: _419  and  _420
REMARK  165  A    between atoms: _422  and  _424
REMARK  166  A    between atoms: _424  and  _425
REMARK  167  A    between atoms: _424  and  _427
REMARK  168  A    between atoms: _427  and  _428
REMARK  169  A    between atoms: _433  and  _434
REMARK  170  A    between atoms: _436  and  _438
REMARK  171  A    between atoms: _438  and  _439
REMARK  172  A    between atoms: _441  and  _443
REMARK  173  A    between atoms: _443  and  _444
REMARK  174  A    between atoms: _443  and  _446
REMARK  175  A    between atoms: _449  and  _451
REMARK  176  A    between atoms: _451  and  _452
REMARK  177  A    between atoms: _451  and  _454
REMARK  178  A    between atoms: _454  and  _455
REMARK  179  A    between atoms: _457  and  _459
REMARK  180  A    between atoms: _459  and  _460
REMARK  181  A    between atoms: _459  and  _462
REMARK  182  A    between atoms: _462  and  _463
REMARK  183  A    between atoms: _468  and  _469
REMARK  184  A    between atoms: _471  and  _473
REMARK  185  A    between atoms: _473  and  _474
REMARK  186  A    between atoms: _473  and  _476
REMARK  187  A    between atoms: _476  and  _477
REMARK  188  A    between atoms: _482  and  _483
REMARK  189  A    between atoms: _485  and  _487
REMARK  190  A    between atoms: _487  and  _488
REMARK  191  A    between atoms: _487  and  _490
REMARK  192  A    between atoms: _490  and  _491
REMARK  193  A    between atoms: _494  and  _496
REMARK  194  A    between atoms: _496  and  _497
REMARK  195  A    between atoms: _496  and  _499
REMARK  196  A    between atoms: _503  and  _504
REMARK  197  A    between atoms: _509  and  _511
REMARK  198  A    between atoms: _511  and  _512
REMARK  199  A    between atoms: _511  and  _514
REMARK  200  A    between atoms: _514  and  _515
REMARK  201  A    between atoms: _520  and  _521
REMARK  202  A    between atoms: _523  and  _525
REMARK  203  A    between atoms: _525  and  _526
REMARK  204  A    between atoms: _525  and  _528
REMARK  205  A    between atoms: _528  and  _529
REMARK  206  A    between atoms: _534  and  _535
REMARK  207  A    between atoms: _537  and  _539
REMARK  208  A    between atoms: _539  and  _540
REMARK  209  A    between atoms: _539  and  _542
REMARK  210  A    between atoms: _542  and  _543
REMARK  211  A    between atoms: _545  and  _547
REMARK  212  A    between atoms: _547  and  _548
REMARK  213  A    between atoms: _547  and  _550
REMARK  214  A    between atoms: _550  and  _551
REMARK  215  A    between atoms: _554  and  _556
REMARK  216  A    between atoms: _556  and  _557
REMARK  217  A    between atoms: _556  and  _559
REMARK  218  A    between atoms: _559  and  _560
REMARK  219  A    between atoms: _565  and  _566
REMARK  220  A    between atoms: _568  and  _570
REMARK  221  A    between atoms: _570  and  _571
REMARK  222  A    between atoms: _570  and  _573
REMARK  223  A    between atoms: _573  and  _574
REMARK  224  A    between atoms: _579  and  _580
REMARK  225  A    between atoms: _582  and  _584
REMARK  226  A    between atoms: _584  and  _585
REMARK  227  A    between atoms: _587  and  _589
REMARK  228  A    between atoms: _589  and  _590
REMARK  229  A    between atoms: _589  and  _592
REMARK  230  A    between atoms: _592  and  _593
REMARK  231  A    between atoms: _595  and  _597
REMARK  232  A    between atoms: _597  and  _598
REMARK  233  A    between atoms: _597  and  _600
REMARK  234  A    between atoms: _600  and  _601
REMARK  235  A    between atoms: _606  and  _608
REMARK  236  A    between atoms: _608  and  _609
REMARK  237  A    between atoms: _608  and  _611
REMARK  238  A    between atoms: _611  and  _612
REMARK  239  A    between atoms: _617  and  _618
REMARK                            x       y       z     vdW  Elec       q    Type
REMARK                         _______ _______ _______ _____ _____    ______ ____
ROOT
ATOM      1  O   HOH     1      -1.849 -14.757  -0.686  0.00  0.00    +0.000 OA
ENDROOT
TORSDOF 0
REMARK  Name = ../refined-set-2016/2qbw/2qbw_pocket.pdb
REMARK  239 active torsions:
REMARK  status: ('A' for Active; 'I' for Inactive)
REMARK    1  A    between atoms: _1  and  _5
REMARK    2  A    between atoms: _5  and  _6
REMARK    3  A    between atoms: _5  and  _8
REMARK    4  A    between atoms: _8  and  _9
REMARK    5  A    between atoms: _12  and  _13
REMARK    6  A    between atoms: _18  and  _20
REMARK    7  A    between atoms: _20  and  _21
REMARK    8  A    between atoms: _20  and  _23
REMARK    9  A    between atoms: _23  and  _24
REMARK   10  A    between atoms: _24  and  _25
REMARK   11  A    between atoms: _28  and  _30
REMARK   12  A    between atoms: _30  and  _31
REMARK   13  A    between atoms: _30  and  _33
REMARK   14  A    between atoms: _33  and  _34
REMARK   15  A    between atoms: _37  and  _39
REMARK   16  A    between atoms: _39  and  _40
REMARK   17  A    between atoms: _42  and  _44
REMARK   18  A    between atoms: _44  and  _45
REMARK   19  A    between atoms: _44  and  _47
REMARK   20  A    between atoms: _47  and  _48
REMARK   21  A    between atoms: _54  and  _56
REMARK   22  A    between atoms: _56  and  _57
REMARK   23  A    between atoms: _56  and  _59
REMARK   24  A    between atoms: _59  and  _60
REMARK   25  A    between atoms: _62  and  _64
REMARK   26  A    between atoms: _64  and  _65
REMARK   27  A    between atoms: _64  and  _67
REMARK   28  A    between atoms: _67  and  _68
REMARK   29  A    between atoms: _71  and  _73
REMARK   30  A    between atoms: _73  and  _74
REMARK   31  A    between atoms: _73  and  _76
REMARK   32  A    between atoms: _76  and  _77
REMARK   33  A    between atoms: _79  and  _81
REMARK   34  A    between atoms: _81  and  _82
REMARK   35  A    between atoms: _84  and  _86
REMARK   36  A    between atoms: _86  and  _87
REMARK   37  A    between atoms: _89  and  _91
REMARK   38  A    between atoms: _91  and  _92
REMARK   39  A    between atoms: _94  and  _96
REMARK   40  A    between atoms: _96  and  _97
REMARK   41  A    between atoms: _96  and  _99
REMARK   42  A    between atoms: _99  and  _100
REMARK   43  A    between atoms: _100  and  _101
REMARK   44  A    between atoms: _101  and  _102
REMARK   45  A    between atoms: _111  and  _113
REMARK   46  A    between atoms: _113  and  _114
REMARK   47  A    between atoms: _116  and  _118
REMARK   48  A    between atoms: _118  and  _119
REMARK   49  A    between atoms: _118  and  _121
REMARK   50  A    between atoms: _121  and  _122
REMARK   51  A    between atoms: _128  and  _129
REMARK   52  A    between atoms: _134  and  _136
REMARK   53  A    between atoms: _136  and  _137
REMARK   54  A    between atoms: _136  and  _139
REMARK   55  A    between atoms: _139  and  _140
REMARK   56  A    between atoms: _146  and  _148
REMARK   57  A    between atoms: _148  and  _149
REMARK   58  A    between atoms: _148  and  _151
REMARK   59  A    between atoms: _151  and  _152
REMARK   60  A    between atoms: _155  and  _157
REMARK   61  A    between atoms: _157  and  _158
REMARK   62  A    between atoms: _157  and  _160
REMARK   63  A    between atoms: _160  and  _161
REMARK   64  A    between atoms: _167  and  _169
REMARK   65  A    between atoms: _169  and  _170
REMARK   66  A    between atoms: _169  and  _172
REMARK   67  A    between atoms: _175  and  _177
REMARK   68  A    between atoms: _177  and  _178
REMARK   69  A    between atoms: _177  and  _180
REMARK   70  A    between atoms: _180  and  _181
REMARK   71  A    between atoms: _184  and  _186
REMARK   72  A    between atoms: _186  and  _187
REMARK   73  A    between atoms: _186  and  _189
REMARK   74  A    between atoms: _189  and  _190
REMARK   75  A    between atoms: _190  and  _191
REMARK   76  A    between atoms: _191  and  _192
REMARK   77  A    between atoms: _201  and  _203
REMARK   78  A    between atoms: _203  and  _204
REMARK   79  A    between atoms: _203  and  _206
REMARK   80  A    between atoms: _209  and  _211
REMARK   81  A    between atoms: _211  and  _212
REMARK   82  A    between atoms: _211  and  _214
REMARK   83  A    between atoms: _214  and  _215
REMARK   84  A    between atoms: _215  and  _216
REMARK   85  A    between atoms: _222  and  _223
REMARK   86  A    between atoms: _229  and  _230
REMARK   87  A    between atoms: _235  and  _237
REMARK   88  A    between atoms: _237  and  _238
REMARK   89  A    between atoms: _241  and  _243
REMARK   90  A    between atoms: _243  and  _244
REMARK   91  A    between atoms: _243  and  _246
REMARK   92  A    between atoms: _246  and  _247
REMARK   93  A    between atoms: _250  and  _252
REMARK   94  A    between atoms: _252  and  _253
REMARK   95  A    between atoms: _252  and  _255
REMARK   96  A    between atoms: _255  and  _256
REMARK   97  A    between atoms: _259  and  _261
REMARK   98  A    between atoms: _261  and  _262
REMARK   99  A    between atoms: _261  and  _264
REMARK  100  A    between atoms: _264  and  _265
REMARK  101  A    between atoms: _271  and  _273
REMARK  102  A    between atoms: _273  and  _274
REMARK  103  A    between atoms: _273  and  _276
REMARK  104  A    between atoms: _276  and  _277
REMARK  105  A    between atoms: _282  and  _284
REMARK  106  A    between atoms: _284  and  _285
REMARK  107  A    between atoms: _287  and  _289
REMARK  108  A    between atoms: _289  and  _290
REMARK  109  A    between atoms: _293  and  _295
REMARK  110  A    between atoms: _295  and  _296
REMARK  111  A    between atoms: _295  and  _298
REMARK  112  A    between atoms: _301  and  _303
REMARK  113  A    between atoms: _303  and  _304
REMARK  114  A    between atoms: _303  and  _306
REMARK  115  A    between atoms: _306  and  _307
REMARK  116  A    between atoms: _309  and  _311
REMARK  117  A    between atoms: _311  and  _312
REMARK  118  A    between atoms: _311  and  _314
REMARK  119  A    between atoms: _314  and  _315
REMARK  120  A    between atoms: _318  and  _320
REMARK  121  A    between atoms: _320  and  _321
REMARK  122  A    between atoms: _320  and  _323
REMARK  123  A    between atoms: _323  and  _324
REMARK  124  A    between atoms: _327  and  _329
REMARK  125  A    between atoms: _329  and  _330
REMARK  126  A    between atoms: _329  and  _332
REMARK  127  A    between atoms: _332  and  _333
REMARK  128  A    between atoms: _333  and  _334
REMARK  129  A    between atoms: _334  and  _335
REMARK  130  A    between atoms: _335  and  _336
REMARK  131  A    between atoms: _340  and  _342
REMARK  132  A    between atoms: _342  and  _343
REMARK  133  A    between atoms: _342  and  _345
REMARK  134  A    between atoms: _345  and  _346
REMARK  135  A    between atoms: _349  and  _351
REMARK  136  A    between atoms: _351  and  _352
REMARK  137  A    between atoms: _351  and  _354
REMARK  138  A    between atoms: _354  and  _355
REMARK  139  A    between atoms: _361  and  _363
REMARK  140  A    between atoms: _363  and  _364
REMARK  141  A    between atoms: _363  and  _366
REMARK  142  A    between atoms: _369  and  _371
REMARK  143  A    between atoms: _371  and  _372
REMARK  144  A    between atoms: _371  and  _374
REMARK  145  A    between atoms: _374  and  _375
REMARK  146  A    between atoms: _378  and  _380
REMARK  147  A    between atoms: _380  and  _381
REMARK  148  A    between atoms: _380  and  _383
REMARK  149  A    between atoms: _386  and  _388
REMARK  150  A    between atoms: _388  and  _389
REMARK  151  A    between atoms: _388  and  _391
REMARK  152  A    between atoms: _391  and  _392
REMARK  153  A    between atoms: _392  and  _393
REMARK  154  A    between atoms: _393  and  _394
REMARK  155  A    between atoms: _394  and  _395
REMARK  156  A    between atoms: _399  and  _401
REMARK  157  A    between atoms: _401  and  _402
REMARK  158  A    between atoms: _401  and  _404
REMARK  159  A    between atoms: _404  and  _405
REMARK  160  A    between atoms: _408  and  _410
REMARK  161  A    between atoms: _410  and  _411
REMARK  162  A    between atoms: _410  and  _413
REMARK  163  A    between atoms: _413  and  _414
REMARK  164  A    between atoms: _419  and  _420
REMARK  165  A    between atoms: _422  and  _424
REMARK  166  A    between atoms: _424  and  _425
REMARK  167  A    between atoms: _424  and  _427
REMARK  168  A    between atoms: _427  and  _428
REMARK  169  A    between atoms: _433  and  _434
REMARK  170  A    between atoms: _436  and  _438
REMARK  171  A    between atoms: _438  and  _439
REMARK  172  A    between atoms: _441  and  _443
REMARK  173  A    between atoms: _443  and  _444
REMARK  174  A    between atoms: _443  and  _446
REMARK  175  A    between atoms: _449  and  _451
REMARK  176  A    between atoms: _451  and  _452
REMARK  177  A    between atoms: _451  and  _454
REMARK  178  A    between atoms: _454  and  _455
REMARK  179  A    between atoms: _457  and  _459
REMARK  180  A    between atoms: _459  and  _460
REMARK  181  A    between atoms: _459  and  _462
REMARK  182  A    between atoms: _462  and  _463
REMARK  183  A    between atoms: _468  and  _469
REMARK  184  A    between atoms: _471  and  _473
REMARK  185  A    between atoms: _473  and  _474
REMARK  186  A    between atoms: _473  and  _476
REMARK  187  A    between atoms: _476  and  _477
REMARK  188  A    between atoms: _482  and  _483
REMARK  189  A    between atoms: _485  and  _487
REMARK  190  A    between atoms: _487  and  _488
REMARK  191  A    between atoms: _487  and  _490
REMARK  192  A    between atoms: _490  and  _491
REMARK  193  A    between atoms: _494  and  _496
REMARK  194  A    between atoms: _496  and  _497
REMARK  195  A    between atoms: _496  and  _499
REMARK  196  A    between atoms: _503  and  _504
REMARK  197  A    between atoms: _509  and  _511
REMARK  198  A    between atoms: _511  and  _512
REMARK  199  A    between atoms: _511  and  _514
REMARK  200  A    between atoms: _514  and  _515
REMARK  201  A    between atoms: _520  and  _521
REMARK  202  A    between atoms: _523  and  _525
REMARK  203  A    between atoms: _525  and  _526
REMARK  204  A    between atoms: _525  and  _528
REMARK  205  A    between atoms: _528  and  _529
REMARK  206  A    between atoms: _534  and  _535
REMARK  207  A    between atoms: _537  and  _539
REMARK  208  A    between atoms: _539  and  _540
REMARK  209  A    between atoms: _539  and  _542
REMARK  210  A    between atoms: _542  and  _543
REMARK  211  A    between atoms: _545  and  _547
REMARK  212  A    between atoms: _547  and  _548
REMARK  213  A    between atoms: _547  and  _550
REMARK  214  A    between atoms: _550  and  _551
REMARK  215  A    between atoms: _554  and  _556
REMARK  216  A    between atoms: _556  and  _557
REMARK  217  A    between atoms: _556  and  _559
REMARK  218  A    between atoms: _559  and  _560
REMARK  219  A    between atoms: _565  and  _566
REMARK  220  A    between atoms: _568  and  _570
REMARK  221  A    between atoms: _570  and  _571
REMARK  222  A    between atoms: _570  and  _573
REMARK  223  A    between atoms: _573  and  _574
REMARK  224  A    between atoms: _579  and  _580
REMARK  225  A    between atoms: _582  and  _584
REMARK  226  A    between atoms: _584  and  _585
REMARK  227  A    between atoms: _587  and  _589
REMARK  228  A    between atoms: _589  and  _590
REMARK  229  A    between atoms: _589  and  _592
REMARK  230  A    between atoms: _592  and  _593
REMARK  231  A    between atoms: _595  and  _597
REMARK  232  A    between atoms: _597  and  _598
REMARK  233  A    between atoms: _597  and  _600
REMARK  234  A    between atoms: _600  and  _601
REMARK  235  A    between atoms: _606  and  _608
REMARK  236  A    between atoms: _608  and  _609
REMARK  237  A    between atoms: _608  and  _611
REMARK  238  A    between atoms: _611  and  _612
REMARK  239  A    between atoms: _617  and  _618
REMARK                            x       y       z     vdW  Elec       q    Type
REMARK                         _______ _______ _______ _____ _____    ______ ____
ROOT
ATOM      1  O   HOH     1       7.577 -19.224  -4.764  0.00  0.00    +0.000 OA
ENDROOT
TORSDOF 0
REMARK  Name = ../refined-set-2016/2qbw/2qbw_pocket.pdb
REMARK  239 active torsions:
REMARK  status: ('A' for Active; 'I' for Inactive)
REMARK    1  A    between atoms: _1  and  _5
REMARK    2  A    between atoms: _5  and  _6
REMARK    3  A    between atoms: _5  and  _8
REMARK    4  A    between atoms: _8  and  _9
REMARK    5  A    between atoms: _12  and  _13
REMARK    6  A    between atoms: _18  and  _20
REMARK    7  A    between atoms: _20  and  _21
REMARK    8  A    between atoms: _20  and  _23
REMARK    9  A    between atoms: _23  and  _24
REMARK   10  A    between atoms: _24  and  _25
REMARK   11  A    between atoms: _28  and  _30
REMARK   12  A    between atoms: _30  and  _31
REMARK   13  A    between atoms: _30  and  _33
REMARK   14  A    between atoms: _33  and  _34
REMARK   15  A    between atoms: _37  and  _39
REMARK   16  A    between atoms: _39  and  _40
REMARK   17  A    between atoms: _42  and  _44
REMARK   18  A    between atoms: _44  and  _45
REMARK   19  A    between atoms: _44  and  _47
REMARK   20  A    between atoms: _47  and  _48
REMARK   21  A    between atoms: _54  and  _56
REMARK   22  A    between atoms: _56  and  _57
REMARK   23  A    between atoms: _56  and  _59
REMARK   24  A    between atoms: _59  and  _60
REMARK   25  A    between atoms: _62  and  _64
REMARK   26  A    between atoms: _64  and  _65
REMARK   27  A    between atoms: _64  and  _67
REMARK   28  A    between atoms: _67  and  _68
REMARK   29  A    between atoms: _71  and  _73
REMARK   30  A    between atoms: _73  and  _74
REMARK   31  A    between atoms: _73  and  _76
REMARK   32  A    between atoms: _76  and  _77
REMARK   33  A    between atoms: _79  and  _81
REMARK   34  A    between atoms: _81  and  _82
REMARK   35  A    between atoms: _84  and  _86
REMARK   36  A    between atoms: _86  and  _87
REMARK   37  A    between atoms: _89  and  _91
REMARK   38  A    between atoms: _91  and  _92
REMARK   39  A    between atoms: _94  and  _96
REMARK   40  A    between atoms: _96  and  _97
REMARK   41  A    between atoms: _96  and  _99
REMARK   42  A    between atoms: _99  and  _100
REMARK   43  A    between atoms: _100  and  _101
REMARK   44  A    between atoms: _101  and  _102
REMARK   45  A    between atoms: _111  and  _113
REMARK   46  A    between atoms: _113  and  _114
REMARK   47  A    between atoms: _116  and  _118
REMARK   48  A    between atoms: _118  and  _119
REMARK   49  A    between atoms: _118  and  _121
REMARK   50  A    between atoms: _121  and  _122
REMARK   51  A    between atoms: _128  and  _129
REMARK   52  A    between atoms: _134  and  _136
REMARK   53  A    between atoms: _136  and  _137
REMARK   54  A    between atoms: _136  and  _139
REMARK   55  A    between atoms: _139  and  _140
REMARK   56  A    between atoms: _146  and  _148
REMARK   57  A    between atoms: _148  and  _149
REMARK   58  A    between atoms: _148  and  _151
REMARK   59  A    between atoms: _151  and  _152
REMARK   60  A    between atoms: _155  and  _157
REMARK   61  A    between atoms: _157  and  _158
REMARK   62  A    between atoms: _157  and  _160
REMARK   63  A    between atoms: _160  and  _161
REMARK   64  A    between atoms: _167  and  _169
REMARK   65  A    between atoms: _169  and  _170
REMARK   66  A    between atoms: _169  and  _172
REMARK   67  A    between atoms: _175  and  _177
REMARK   68  A    between atoms: _177  and  _178
REMARK   69  A    between atoms: _177  and  _180
REMARK   70  A    between atoms: _180  and  _181
REMARK   71  A    between atoms: _184  and  _186
REMARK   72  A    between atoms: _186  and  _187
REMARK   73  A    between atoms: _186  and  _189
REMARK   74  A    between atoms: _189  and  _190
REMARK   75  A    between atoms: _190  and  _191
REMARK   76  A    between atoms: _191  and  _192
REMARK   77  A    between atoms: _201  and  _203
REMARK   78  A    between atoms: _203  and  _204
REMARK   79  A    between atoms: _203  and  _206
REMARK   80  A    between atoms: _209  and  _211
REMARK   81  A    between atoms: _211  and  _212
REMARK   82  A    between atoms: _211  and  _214
REMARK   83  A    between atoms: _214  and  _215
REMARK   84  A    between atoms: _215  and  _216
REMARK   85  A    between atoms: _222  and  _223
REMARK   86  A    between atoms: _229  and  _230
REMARK   87  A    between atoms: _235  and  _237
REMARK   88  A    between atoms: _237  and  _238
REMARK   89  A    between atoms: _241  and  _243
REMARK   90  A    between atoms: _243  and  _244
REMARK   91  A    between atoms: _243  and  _246
REMARK   92  A    between atoms: _246  and  _247
REMARK   93  A    between atoms: _250  and  _252
REMARK   94  A    between atoms: _252  and  _253
REMARK   95  A    between atoms: _252  and  _255
REMARK   96  A    between atoms: _255  and  _256
REMARK   97  A    between atoms: _259  and  _261
REMARK   98  A    between atoms: _261  and  _262
REMARK   99  A    between atoms: _261  and  _264
REMARK  100  A    between atoms: _264  and  _265
REMARK  101  A    between atoms: _271  and  _273
REMARK  102  A    between atoms: _273  and  _274
REMARK  103  A    between atoms: _273  and  _276
REMARK  104  A    between atoms: _276  and  _277
REMARK  105  A    between atoms: _282  and  _284
REMARK  106  A    between atoms: _284  and  _285
REMARK  107  A    between atoms: _287  and  _289
REMARK  108  A    between atoms: _289  and  _290
REMARK  109  A    between atoms: _293  and  _295
REMARK  110  A    between atoms: _295  and  _296
REMARK  111  A    between atoms: _295  and  _298
REMARK  112  A    between atoms: _301  and  _303
REMARK  113  A    between atoms: _303  and  _304
REMARK  114  A    between atoms: _303  and  _306
REMARK  115  A    between atoms: _306  and  _307
REMARK  116  A    between atoms: _309  and  _311
REMARK  117  A    between atoms: _311  and  _312
REMARK  118  A    between atoms: _311  and  _314
REMARK  119  A    between atoms: _314  and  _315
REMARK  120  A    between atoms: _318  and  _320
REMARK  121  A    between atoms: _320  and  _321
REMARK  122  A    between atoms: _320  and  _323
REMARK  123  A    between atoms: _323  and  _324
REMARK  124  A    between atoms: _327  and  _329
REMARK  125  A    between atoms: _329  and  _330
REMARK  126  A    between atoms: _329  and  _332
REMARK  127  A    between atoms: _332  and  _333
REMARK  128  A    between atoms: _333  and  _334
REMARK  129  A    between atoms: _334  and  _335
REMARK  130  A    between atoms: _335  and  _336
REMARK  131  A    between atoms: _340  and  _342
REMARK  132  A    between atoms: _342  and  _343
REMARK  133  A    between atoms: _342  and  _345
REMARK  134  A    between atoms: _345  and  _346
REMARK  135  A    between atoms: _349  and  _351
REMARK  136  A    between atoms: _351  and  _352
REMARK  137  A    between atoms: _351  and  _354
REMARK  138  A    between atoms: _354  and  _355
REMARK  139  A    between atoms: _361  and  _363
REMARK  140  A    between atoms: _363  and  _364
REMARK  141  A    between atoms: _363  and  _366
REMARK  142  A    between atoms: _369  and  _371
REMARK  143  A    between atoms: _371  and  _372
REMARK  144  A    between atoms: _371  and  _374
REMARK  145  A    between atoms: _374  and  _375
REMARK  146  A    between atoms: _378  and  _380
REMARK  147  A    between atoms: _380  and  _381
REMARK  148  A    between atoms: _380  and  _383
REMARK  149  A    between atoms: _386  and  _388
REMARK  150  A    between atoms: _388  and  _389
REMARK  151  A    between atoms: _388  and  _391
REMARK  152  A    between atoms: _391  and  _392
REMARK  153  A    between atoms: _392  and  _393
REMARK  154  A    between atoms: _393  and  _394
REMARK  155  A    between atoms: _394  and  _395
REMARK  156  A    between atoms: _399  and  _401
REMARK  157  A    between atoms: _401  and  _402
REMARK  158  A    between atoms: _401  and  _404
REMARK  159  A    between atoms: _404  and  _405
REMARK  160  A    between atoms: _408  and  _410
REMARK  161  A    between atoms: _410  and  _411
REMARK  162  A    between atoms: _410  and  _413
REMARK  163  A    between atoms: _413  and  _414
REMARK  164  A    between atoms: _419  and  _420
REMARK  165  A    between atoms: _422  and  _424
REMARK  166  A    between atoms: _424  and  _425
REMARK  167  A    between atoms: _424  and  _427
REMARK  168  A    between atoms: _427  and  _428
REMARK  169  A    between atoms: _433  and  _434
REMARK  170  A    between atoms: _436  and  _438
REMARK  171  A    between atoms: _438  and  _439
REMARK  172  A    between atoms: _441  and  _443
REMARK  173  A    between atoms: _443  and  _444
REMARK  174  A    between atoms: _443  and  _446
REMARK  175  A    between atoms: _449  and  _451
REMARK  176  A    between atoms: _451  and  _452
REMARK  177  A    between atoms: _451  and  _454
REMARK  178  A    between atoms: _454  and  _455
REMARK  179  A    between atoms: _457  and  _459
REMARK  180  A    between atoms: _459  and  _460
REMARK  181  A    between atoms: _459  and  _462
REMARK  182  A    between atoms: _462  and  _463
REMARK  183  A    between atoms: _468  and  _469
REMARK  184  A    between atoms: _471  and  _473
REMARK  185  A    between atoms: _473  and  _474
REMARK  186  A    between atoms: _473  and  _476
REMARK  187  A    between atoms: _476  and  _477
REMARK  188  A    between atoms: _482  and  _483
REMARK  189  A    between atoms: _485  and  _487
REMARK  190  A    between atoms: _487  and  _488
REMARK  191  A    between atoms: _487  and  _490
REMARK  192  A    between atoms: _490  and  _491
REMARK  193  A    between atoms: _494  and  _496
REMARK  194  A    between atoms: _496  and  _497
REMARK  195  A    between atoms: _496  and  _499
REMARK  196  A    between atoms: _503  and  _504
REMARK  197  A    between atoms: _509  and  _511
REMARK  198  A    between atoms: _511  and  _512
REMARK  199  A    between atoms: _511  and  _514
REMARK  200  A    between atoms: _514  and  _515
REMARK  201  A    between atoms: _520  and  _521
REMARK  202  A    between atoms: _523  and  _525
REMARK  203  A    between atoms: _525  and  _526
REMARK  204  A    between atoms: _525  and  _528
REMARK  205  A    between atoms: _528  and  _529
REMARK  206  A    between atoms: _534  and  _535
REMARK  207  A    between atoms: _537  and  _539
REMARK  208  A    between atoms: _539  and  _540
REMARK  209  A    between atoms: _539  and  _542
REMARK  210  A    between atoms: _542  and  _543
REMARK  211  A    between atoms: _545  and  _547
REMARK  212  A    between atoms: _547  and  _548
REMARK  213  A    between atoms: _547  and  _550
REMARK  214  A    between atoms: _550  and  _551
REMARK  215  A    between atoms: _554  and  _556
REMARK  216  A    between atoms: _556  and  _557
REMARK  217  A    between atoms: _556  and  _559
REMARK  218  A    between atoms: _559  and  _560
REMARK  219  A    between atoms: _565  and  _566
REMARK  220  A    between atoms: _568  and  _570
REMARK  221  A    between atoms: _570  and  _571
REMARK  222  A    between atoms: _570  and  _573
REMARK  223  A    between atoms: _573  and  _574
REMARK  224  A    between atoms: _579  and  _580
REMARK  225  A    between atoms: _582  and  _584
REMARK  226  A    between atoms: _584  and  _585
REMARK  227  A    between atoms: _587  and  _589
REMARK  228  A    between atoms: _589  and  _590
REMARK  229  A    between atoms: _589  and  _592
REMARK  230  A    between atoms: _592  and  _593
REMARK  231  A    between atoms: _595  and  _597
REMARK  232  A    between atoms: _597  and  _598
REMARK  233  A    between atoms: _597  and  _600
REMARK  234  A    between atoms: _600  and  _601
REMARK  235  A    between atoms: _606  and  _608
REMARK  236  A    between atoms: _608  and  _609
REMARK  237  A    between atoms: _608  and  _611
REMARK  238  A    between atoms: _611  and  _612
REMARK  239  A    between atoms: _617  and  _618
REMARK                            x       y       z     vdW  Elec       q    Type
REMARK                         _______ _______ _______ _____ _____    ______ ____
ROOT
ATOM      1  O   HOH     1       8.335 -15.072 -10.056  0.00  0.00    +0.000 OA
ENDROOT
TORSDOF 0
REMARK  Name = ../refined-set-2016/2qbw/2qbw_pocket.pdb
REMARK  239 active torsions:
REMARK  status: ('A' for Active; 'I' for Inactive)
REMARK    1  A    between atoms: _1  and  _5
REMARK    2  A    between atoms: _5  and  _6
REMARK    3  A    between atoms: _5  and  _8
REMARK    4  A    between atoms: _8  and  _9
REMARK    5  A    between atoms: _12  and  _13
REMARK    6  A    between atoms: _18  and  _20
REMARK    7  A    between atoms: _20  and  _21
REMARK    8  A    between atoms: _20  and  _23
REMARK    9  A    between atoms: _23  and  _24
REMARK   10  A    between atoms: _24  and  _25
REMARK   11  A    between atoms: _28  and  _30
REMARK   12  A    between atoms: _30  and  _31
REMARK   13  A    between atoms: _30  and  _33
REMARK   14  A    between atoms: _33  and  _34
REMARK   15  A    between atoms: _37  and  _39
REMARK   16  A    between atoms: _39  and  _40
REMARK   17  A    between atoms: _42  and  _44
REMARK   18  A    between atoms: _44  and  _45
REMARK   19  A    between atoms: _44  and  _47
REMARK   20  A    between atoms: _47  and  _48
REMARK   21  A    between atoms: _54  and  _56
REMARK   22  A    between atoms: _56  and  _57
REMARK   23  A    between atoms: _56  and  _59
REMARK   24  A    between atoms: _59  and  _60
REMARK   25  A    between atoms: _62  and  _64
REMARK   26  A    between atoms: _64  and  _65
REMARK   27  A    between atoms: _64  and  _67
REMARK   28  A    between atoms: _67  and  _68
REMARK   29  A    between atoms: _71  and  _73
REMARK   30  A    between atoms: _73  and  _74
REMARK   31  A    between atoms: _73  and  _76
REMARK   32  A    between atoms: _76  and  _77
REMARK   33  A    between atoms: _79  and  _81
REMARK   34  A    between atoms: _81  and  _82
REMARK   35  A    between atoms: _84  and  _86
REMARK   36  A    between atoms: _86  and  _87
REMARK   37  A    between atoms: _89  and  _91
REMARK   38  A    between atoms: _91  and  _92
REMARK   39  A    between atoms: _94  and  _96
REMARK   40  A    between atoms: _96  and  _97
REMARK   41  A    between atoms: _96  and  _99
REMARK   42  A    between atoms: _99  and  _100
REMARK   43  A    between atoms: _100  and  _101
REMARK   44  A    between atoms: _101  and  _102
REMARK   45  A    between atoms: _111  and  _113
REMARK   46  A    between atoms: _113  and  _114
REMARK   47  A    between atoms: _116  and  _118
REMARK   48  A    between atoms: _118  and  _119
REMARK   49  A    between atoms: _118  and  _121
REMARK   50  A    between atoms: _121  and  _122
REMARK   51  A    between atoms: _128  and  _129
REMARK   52  A    between atoms: _134  and  _136
REMARK   53  A    between atoms: _136  and  _137
REMARK   54  A    between atoms: _136  and  _139
REMARK   55  A    between atoms: _139  and  _140
REMARK   56  A    between atoms: _146  and  _148
REMARK   57  A    between atoms: _148  and  _149
REMARK   58  A    between atoms: _148  and  _151
REMARK   59  A    between atoms: _151  and  _152
REMARK   60  A    between atoms: _155  and  _157
REMARK   61  A    between atoms: _157  and  _158
REMARK   62  A    between atoms: _157  and  _160
REMARK   63  A    between atoms: _160  and  _161
REMARK   64  A    between atoms: _167  and  _169
REMARK   65  A    between atoms: _169  and  _170
REMARK   66  A    between atoms: _169  and  _172
REMARK   67  A    between atoms: _175  and  _177
REMARK   68  A    between atoms: _177  and  _178
REMARK   69  A    between atoms: _177  and  _180
REMARK   70  A    between atoms: _180  and  _181
REMARK   71  A    between atoms: _184  and  _186
REMARK   72  A    between atoms: _186  and  _187
REMARK   73  A    between atoms: _186  and  _189
REMARK   74  A    between atoms: _189  and  _190
REMARK   75  A    between atoms: _190  and  _191
REMARK   76  A    between atoms: _191  and  _192
REMARK   77  A    between atoms: _201  and  _203
REMARK   78  A    between atoms: _203  and  _204
REMARK   79  A    between atoms: _203  and  _206
REMARK   80  A    between atoms: _209  and  _211
REMARK   81  A    between atoms: _211  and  _212
REMARK   82  A    between atoms: _211  and  _214
REMARK   83  A    between atoms: _214  and  _215
REMARK   84  A    between atoms: _215  and  _216
REMARK   85  A    between atoms: _222  and  _223
REMARK   86  A    between atoms: _229  and  _230
REMARK   87  A    between atoms: _235  and  _237
REMARK   88  A    between atoms: _237  and  _238
REMARK   89  A    between atoms: _241  and  _243
REMARK   90  A    between atoms: _243  and  _244
REMARK   91  A    between atoms: _243  and  _246
REMARK   92  A    between atoms: _246  and  _247
REMARK   93  A    between atoms: _250  and  _252
REMARK   94  A    between atoms: _252  and  _253
REMARK   95  A    between atoms: _252  and  _255
REMARK   96  A    between atoms: _255  and  _256
REMARK   97  A    between atoms: _259  and  _261
REMARK   98  A    between atoms: _261  and  _262
REMARK   99  A    between atoms: _261  and  _264
REMARK  100  A    between atoms: _264  and  _265
REMARK  101  A    between atoms: _271  and  _273
REMARK  102  A    between atoms: _273  and  _274
REMARK  103  A    between atoms: _273  and  _276
REMARK  104  A    between atoms: _276  and  _277
REMARK  105  A    between atoms: _282  and  _284
REMARK  106  A    between atoms: _284  and  _285
REMARK  107  A    between atoms: _287  and  _289
REMARK  108  A    between atoms: _289  and  _290
REMARK  109  A    between atoms: _293  and  _295
REMARK  110  A    between atoms: _295  and  _296
REMARK  111  A    between atoms: _295  and  _298
REMARK  112  A    between atoms: _301  and  _303
REMARK  113  A    between atoms: _303  and  _304
REMARK  114  A    between atoms: _303  and  _306
REMARK  115  A    between atoms: _306  and  _307
REMARK  116  A    between atoms: _309  and  _311
REMARK  117  A    between atoms: _311  and  _312
REMARK  118  A    between atoms: _311  and  _314
REMARK  119  A    between atoms: _314  and  _315
REMARK  120  A    between atoms: _318  and  _320
REMARK  121  A    between atoms: _320  and  _321
REMARK  122  A    between atoms: _320  and  _323
REMARK  123  A    between atoms: _323  and  _324
REMARK  124  A    between atoms: _327  and  _329
REMARK  125  A    between atoms: _329  and  _330
REMARK  126  A    between atoms: _329  and  _332
REMARK  127  A    between atoms: _332  and  _333
REMARK  128  A    between atoms: _333  and  _334
REMARK  129  A    between atoms: _334  and  _335
REMARK  130  A    between atoms: _335  and  _336
REMARK  131  A    between atoms: _340  and  _342
REMARK  132  A    between atoms: _342  and  _343
REMARK  133  A    between atoms: _342  and  _345
REMARK  134  A    between atoms: _345  and  _346
REMARK  135  A    between atoms: _349  and  _351
REMARK  136  A    between atoms: _351  and  _352
REMARK  137  A    between atoms: _351  and  _354
REMARK  138  A    between atoms: _354  and  _355
REMARK  139  A    between atoms: _361  and  _363
REMARK  140  A    between atoms: _363  and  _364
REMARK  141  A    between atoms: _363  and  _366
REMARK  142  A    between atoms: _369  and  _371
REMARK  143  A    between atoms: _371  and  _372
REMARK  144  A    between atoms: _371  and  _374
REMARK  145  A    between atoms: _374  and  _375
REMARK  146  A    between atoms: _378  and  _380
REMARK  147  A    between atoms: _380  and  _381
REMARK  148  A    between atoms: _380  and  _383
REMARK  149  A    between atoms: _386  and  _388
REMARK  150  A    between atoms: _388  and  _389
REMARK  151  A    between atoms: _388  and  _391
REMARK  152  A    between atoms: _391  and  _392
REMARK  153  A    between atoms: _392  and  _393
REMARK  154  A    between atoms: _393  and  _394
REMARK  155  A    between atoms: _394  and  _395
REMARK  156  A    between atoms: _399  and  _401
REMARK  157  A    between atoms: _401  and  _402
REMARK  158  A    between atoms: _401  and  _404
REMARK  159  A    between atoms: _404  and  _405
REMARK  160  A    between atoms: _408  and  _410
REMARK  161  A    between atoms: _410  and  _411
REMARK  162  A    between atoms: _410  and  _413
REMARK  163  A    between atoms: _413  and  _414
REMARK  164  A    between atoms: _419  and  _420
REMARK  165  A    between atoms: _422  and  _424
REMARK  166  A    between atoms: _424  and  _425
REMARK  167  A    between atoms: _424  and  _427
REMARK  168  A    between atoms: _427  and  _428
REMARK  169  A    between atoms: _433  and  _434
REMARK  170  A    between atoms: _436  and  _438
REMARK  171  A    between atoms: _438  and  _439
REMARK  172  A    between atoms: _441  and  _443
REMARK  173  A    between atoms: _443  and  _444
REMARK  174  A    between atoms: _443  and  _446
REMARK  175  A    between atoms: _449  and  _451
REMARK  176  A    between atoms: _451  and  _452
REMARK  177  A    between atoms: _451  and  _454
REMARK  178  A    between atoms: _454  and  _455
REMARK  179  A    between atoms: _457  and  _459
REMARK  180  A    between atoms: _459  and  _460
REMARK  181  A    between atoms: _459  and  _462
REMARK  182  A    between atoms: _462  and  _463
REMARK  183  A    between atoms: _468  and  _469
REMARK  184  A    between atoms: _471  and  _473
REMARK  185  A    between atoms: _473  and  _474
REMARK  186  A    between atoms: _473  and  _476
REMARK  187  A    between atoms: _476  and  _477
REMARK  188  A    between atoms: _482  and  _483
REMARK  189  A    between atoms: _485  and  _487
REMARK  190  A    between atoms: _487  and  _488
REMARK  191  A    between atoms: _487  and  _490
REMARK  192  A    between atoms: _490  and  _491
REMARK  193  A    between atoms: _494  and  _496
REMARK  194  A    between atoms: _496  and  _497
REMARK  195  A    between atoms: _496  and  _499
REMARK  196  A    between atoms: _503  and  _504
REMARK  197  A    between atoms: _509  and  _511
REMARK  198  A    between atoms: _511  and  _512
REMARK  199  A    between atoms: _511  and  _514
REMARK  200  A    between atoms: _514  and  _515
REMARK  201  A    between atoms: _520  and  _521
REMARK  202  A    between atoms: _523  and  _525
REMARK  203  A    between atoms: _525  and  _526
REMARK  204  A    between atoms: _525  and  _528
REMARK  205  A    between atoms: _528  and  _529
REMARK  206  A    between atoms: _534  and  _535
REMARK  207  A    between atoms: _537  and  _539
REMARK  208  A    between atoms: _539  and  _540
REMARK  209  A    between atoms: _539  and  _542
REMARK  210  A    between atoms: _542  and  _543
REMARK  211  A    between atoms: _545  and  _547
REMARK  212  A    between atoms: _547  and  _548
REMARK  213  A    between atoms: _547  and  _550
REMARK  214  A    between atoms: _550  and  _551
REMARK  215  A    between atoms: _554  and  _556
REMARK  216  A    between atoms: _556  and  _557
REMARK  217  A    between atoms: _556  and  _559
REMARK  218  A    between atoms: _559  and  _560
REMARK  219  A    between atoms: _565  and  _566
REMARK  220  A    between atoms: _568  and  _570
REMARK  221  A    between atoms: _570  and  _571
REMARK  222  A    between atoms: _570  and  _573
REMARK  223  A    between atoms: _573  and  _574
REMARK  224  A    between atoms: _579  and  _580
REMARK  225  A    between atoms: _582  and  _584
REMARK  226  A    between atoms: _584  and  _585
REMARK  227  A    between atoms: _587  and  _589
REMARK  228  A    between atoms: _589  and  _590
REMARK  229  A    between atoms: _589  and  _592
REMARK  230  A    between atoms: _592  and  _593
REMARK  231  A    between atoms: _595  and  _597
REMARK  232  A    between atoms: _597  and  _598
REMARK  233  A    between atoms: _597  and  _600
REMARK  234  A    between atoms: _600  and  _601
REMARK  235  A    between atoms: _606  and  _608
REMARK  236  A    between atoms: _608  and  _609
REMARK  237  A    between atoms: _608  and  _611
REMARK  238  A    between atoms: _611  and  _612
REMARK  239  A    between atoms: _617  and  _618
REMARK                            x       y       z     vdW  Elec       q    Type
REMARK                         _______ _______ _______ _____ _____    ______ ____
ROOT
ATOM      1  O   HOH     1      -0.244 -19.003 -11.095  0.00  0.00    +0.000 OA
ENDROOT
TORSDOF 0
REMARK  Name = ../refined-set-2016/2qbw/2qbw_pocket.pdb
REMARK  239 active torsions:
REMARK  status: ('A' for Active; 'I' for Inactive)
REMARK    1  A    between atoms: _1  and  _5
REMARK    2  A    between atoms: _5  and  _6
REMARK    3  A    between atoms: _5  and  _8
REMARK    4  A    between atoms: _8  and  _9
REMARK    5  A    between atoms: _12  and  _13
REMARK    6  A    between atoms: _18  and  _20
REMARK    7  A    between atoms: _20  and  _21
REMARK    8  A    between atoms: _20  and  _23
REMARK    9  A    between atoms: _23  and  _24
REMARK   10  A    between atoms: _24  and  _25
REMARK   11  A    between atoms: _28  and  _30
REMARK   12  A    between atoms: _30  and  _31
REMARK   13  A    between atoms: _30  and  _33
REMARK   14  A    between atoms: _33  and  _34
REMARK   15  A    between atoms: _37  and  _39
REMARK   16  A    between atoms: _39  and  _40
REMARK   17  A    between atoms: _42  and  _44
REMARK   18  A    between atoms: _44  and  _45
REMARK   19  A    between atoms: _44  and  _47
REMARK   20  A    between atoms: _47  and  _48
REMARK   21  A    between atoms: _54  and  _56
REMARK   22  A    between atoms: _56  and  _57
REMARK   23  A    between atoms: _56  and  _59
REMARK   24  A    between atoms: _59  and  _60
REMARK   25  A    between atoms: _62  and  _64
REMARK   26  A    between atoms: _64  and  _65
REMARK   27  A    between atoms: _64  and  _67
REMARK   28  A    between atoms: _67  and  _68
REMARK   29  A    between atoms: _71  and  _73
REMARK   30  A    between atoms: _73  and  _74
REMARK   31  A    between atoms: _73  and  _76
REMARK   32  A    between atoms: _76  and  _77
REMARK   33  A    between atoms: _79  and  _81
REMARK   34  A    between atoms: _81  and  _82
REMARK   35  A    between atoms: _84  and  _86
REMARK   36  A    between atoms: _86  and  _87
REMARK   37  A    between atoms: _89  and  _91
REMARK   38  A    between atoms: _91  and  _92
REMARK   39  A    between atoms: _94  and  _96
REMARK   40  A    between atoms: _96  and  _97
REMARK   41  A    between atoms: _96  and  _99
REMARK   42  A    between atoms: _99  and  _100
REMARK   43  A    between atoms: _100  and  _101
REMARK   44  A    between atoms: _101  and  _102
REMARK   45  A    between atoms: _111  and  _113
REMARK   46  A    between atoms: _113  and  _114
REMARK   47  A    between atoms: _116  and  _118
REMARK   48  A    between atoms: _118  and  _119
REMARK   49  A    between atoms: _118  and  _121
REMARK   50  A    between atoms: _121  and  _122
REMARK   51  A    between atoms: _128  and  _129
REMARK   52  A    between atoms: _134  and  _136
REMARK   53  A    between atoms: _136  and  _137
REMARK   54  A    between atoms: _136  and  _139
REMARK   55  A    between atoms: _139  and  _140
REMARK   56  A    between atoms: _146  and  _148
REMARK   57  A    between atoms: _148  and  _149
REMARK   58  A    between atoms: _148  and  _151
REMARK   59  A    between atoms: _151  and  _152
REMARK   60  A    between atoms: _155  and  _157
REMARK   61  A    between atoms: _157  and  _158
REMARK   62  A    between atoms: _157  and  _160
REMARK   63  A    between atoms: _160  and  _161
REMARK   64  A    between atoms: _167  and  _169
REMARK   65  A    between atoms: _169  and  _170
REMARK   66  A    between atoms: _169  and  _172
REMARK   67  A    between atoms: _175  and  _177
REMARK   68  A    between atoms: _177  and  _178
REMARK   69  A    between atoms: _177  and  _180
REMARK   70  A    between atoms: _180  and  _181
REMARK   71  A    between atoms: _184  and  _186
REMARK   72  A    between atoms: _186  and  _187
REMARK   73  A    between atoms: _186  and  _189
REMARK   74  A    between atoms: _189  and  _190
REMARK   75  A    between atoms: _190  and  _191
REMARK   76  A    between atoms: _191  and  _192
REMARK   77  A    between atoms: _201  and  _203
REMARK   78  A    between atoms: _203  and  _204
REMARK   79  A    between atoms: _203  and  _206
REMARK   80  A    between atoms: _209  and  _211
REMARK   81  A    between atoms: _211  and  _212
REMARK   82  A    between atoms: _211  and  _214
REMARK   83  A    between atoms: _214  and  _215
REMARK   84  A    between atoms: _215  and  _216
REMARK   85  A    between atoms: _222  and  _223
REMARK   86  A    between atoms: _229  and  _230
REMARK   87  A    between atoms: _235  and  _237
REMARK   88  A    between atoms: _237  and  _238
REMARK   89  A    between atoms: _241  and  _243
REMARK   90  A    between atoms: _243  and  _244
REMARK   91  A    between atoms: _243  and  _246
REMARK   92  A    between atoms: _246  and  _247
REMARK   93  A    between atoms: _250  and  _252
REMARK   94  A    between atoms: _252  and  _253
REMARK   95  A    between atoms: _252  and  _255
REMARK   96  A    between atoms: _255  and  _256
REMARK   97  A    between atoms: _259  and  _261
REMARK   98  A    between atoms: _261  and  _262
REMARK   99  A    between atoms: _261  and  _264
REMARK  100  A    between atoms: _264  and  _265
REMARK  101  A    between atoms: _271  and  _273
REMARK  102  A    between atoms: _273  and  _274
REMARK  103  A    between atoms: _273  and  _276
REMARK  104  A    between atoms: _276  and  _277
REMARK  105  A    between atoms: _282  and  _284
REMARK  106  A    between atoms: _284  and  _285
REMARK  107  A    between atoms: _287  and  _289
REMARK  108  A    between atoms: _289  and  _290
REMARK  109  A    between atoms: _293  and  _295
REMARK  110  A    between atoms: _295  and  _296
REMARK  111  A    between atoms: _295  and  _298
REMARK  112  A    between atoms: _301  and  _303
REMARK  113  A    between atoms: _303  and  _304
REMARK  114  A    between atoms: _303  and  _306
REMARK  115  A    between atoms: _306  and  _307
REMARK  116  A    between atoms: _309  and  _311
REMARK  117  A    between atoms: _311  and  _312
REMARK  118  A    between atoms: _311  and  _314
REMARK  119  A    between atoms: _314  and  _315
REMARK  120  A    between atoms: _318  and  _320
REMARK  121  A    between atoms: _320  and  _321
REMARK  122  A    between atoms: _320  and  _323
REMARK  123  A    between atoms: _323  and  _324
REMARK  124  A    between atoms: _327  and  _329
REMARK  125  A    between atoms: _329  and  _330
REMARK  126  A    between atoms: _329  and  _332
REMARK  127  A    between atoms: _332  and  _333
REMARK  128  A    between atoms: _333  and  _334
REMARK  129  A    between atoms: _334  and  _335
REMARK  130  A    between atoms: _335  and  _336
REMARK  131  A    between atoms: _340  and  _342
REMARK  132  A    between atoms: _342  and  _343
REMARK  133  A    between atoms: _342  and  _345
REMARK  134  A    between atoms: _345  and  _346
REMARK  135  A    between atoms: _349  and  _351
REMARK  136  A    between atoms: _351  and  _352
REMARK  137  A    between atoms: _351  and  _354
REMARK  138  A    between atoms: _354  and  _355
REMARK  139  A    between atoms: _361  and  _363
REMARK  140  A    between atoms: _363  and  _364
REMARK  141  A    between atoms: _363  and  _366
REMARK  142  A    between atoms: _369  and  _371
REMARK  143  A    between atoms: _371  and  _372
REMARK  144  A    between atoms: _371  and  _374
REMARK  145  A    between atoms: _374  and  _375
REMARK  146  A    between atoms: _378  and  _380
REMARK  147  A    between atoms: _380  and  _381
REMARK  148  A    between atoms: _380  and  _383
REMARK  149  A    between atoms: _386  and  _388
REMARK  150  A    between atoms: _388  and  _389
REMARK  151  A    between atoms: _388  and  _391
REMARK  152  A    between atoms: _391  and  _392
REMARK  153  A    between atoms: _392  and  _393
REMARK  154  A    between atoms: _393  and  _394
REMARK  155  A    between atoms: _394  and  _395
REMARK  156  A    between atoms: _399  and  _401
REMARK  157  A    between atoms: _401  and  _402
REMARK  158  A    between atoms: _401  and  _404
REMARK  159  A    between atoms: _404  and  _405
REMARK  160  A    between atoms: _408  and  _410
REMARK  161  A    between atoms: _410  and  _411
REMARK  162  A    between atoms: _410  and  _413
REMARK  163  A    between atoms: _413  and  _414
REMARK  164  A    between atoms: _419  and  _420
REMARK  165  A    between atoms: _422  and  _424
REMARK  166  A    between atoms: _424  and  _425
REMARK  167  A    between atoms: _424  and  _427
REMARK  168  A    between atoms: _427  and  _428
REMARK  169  A    between atoms: _433  and  _434
REMARK  170  A    between atoms: _436  and  _438
REMARK  171  A    between atoms: _438  and  _439
REMARK  172  A    between atoms: _441  and  _443
REMARK  173  A    between atoms: _443  and  _444
REMARK  174  A    between atoms: _443  and  _446
REMARK  175  A    between atoms: _449  and  _451
REMARK  176  A    between atoms: _451  and  _452
REMARK  177  A    between atoms: _451  and  _454
REMARK  178  A    between atoms: _454  and  _455
REMARK  179  A    between atoms: _457  and  _459
REMARK  180  A    between atoms: _459  and  _460
REMARK  181  A    between atoms: _459  and  _462
REMARK  182  A    between atoms: _462  and  _463
REMARK  183  A    between atoms: _468  and  _469
REMARK  184  A    between atoms: _471  and  _473
REMARK  185  A    between atoms: _473  and  _474
REMARK  186  A    between atoms: _473  and  _476
REMARK  187  A    between atoms: _476  and  _477
REMARK  188  A    between atoms: _482  and  _483
REMARK  189  A    between atoms: _485  and  _487
REMARK  190  A    between atoms: _487  and  _488
REMARK  191  A    between atoms: _487  and  _490
REMARK  192  A    between atoms: _490  and  _491
REMARK  193  A    between atoms: _494  and  _496
REMARK  194  A    between atoms: _496  and  _497
REMARK  195  A    between atoms: _496  and  _499
REMARK  196  A    between atoms: _503  and  _504
REMARK  197  A    between atoms: _509  and  _511
REMARK  198  A    between atoms: _511  and  _512
REMARK  199  A    between atoms: _511  and  _514
REMARK  200  A    between atoms: _514  and  _515
REMARK  201  A    between atoms: _520  and  _521
REMARK  202  A    between atoms: _523  and  _525
REMARK  203  A    between atoms: _525  and  _526
REMARK  204  A    between atoms: _525  and  _528
REMARK  205  A    between atoms: _528  and  _529
REMARK  206  A    between atoms: _534  and  _535
REMARK  207  A    between atoms: _537  and  _539
REMARK  208  A    between atoms: _539  and  _540
REMARK  209  A    between atoms: _539  and  _542
REMARK  210  A    between atoms: _542  and  _543
REMARK  211  A    between atoms: _545  and  _547
REMARK  212  A    between atoms: _547  and  _548
REMARK  213  A    between atoms: _547  and  _550
REMARK  214  A    between atoms: _550  and  _551
REMARK  215  A    between atoms: _554  and  _556
REMARK  216  A    between atoms: _556  and  _557
REMARK  217  A    between atoms: _556  and  _559
REMARK  218  A    between atoms: _559  and  _560
REMARK  219  A    between atoms: _565  and  _566
REMARK  220  A    between atoms: _568  and  _570
REMARK  221  A    between atoms: _570  and  _571
REMARK  222  A    between atoms: _570  and  _573
REMARK  223  A    between atoms: _573  and  _574
REMARK  224  A    between atoms: _579  and  _580
REMARK  225  A    between atoms: _582  and  _584
REMARK  226  A    between atoms: _584  and  _585
REMARK  227  A    between atoms: _587  and  _589
REMARK  228  A    between atoms: _589  and  _590
REMARK  229  A    between atoms: _589  and  _592
REMARK  230  A    between atoms: _592  and  _593
REMARK  231  A    between atoms: _595  and  _597
REMARK  232  A    between atoms: _597  and  _598
REMARK  233  A    between atoms: _597  and  _600
REMARK  234  A    between atoms: _600  and  _601
REMARK  235  A    between atoms: _606  and  _608
REMARK  236  A    between atoms: _608  and  _609
REMARK  237  A    between atoms: _608  and  _611
REMARK  238  A    between atoms: _611  and  _612
REMARK  239  A    between atoms: _617  and  _618
REMARK                            x       y       z     vdW  Elec       q    Type
REMARK                         _______ _______ _______ _____ _____    ______ ____
ROOT
ATOM      1  O   HOH     1       2.948   5.247  -8.887  0.00  0.00    +0.000 OA
ENDROOT
TORSDOF 0
REMARK  Name = ../refined-set-2016/2qbw/2qbw_pocket.pdb
REMARK  239 active torsions:
REMARK  status: ('A' for Active; 'I' for Inactive)
REMARK    1  A    between atoms: _1  and  _5
REMARK    2  A    between atoms: _5  and  _6
REMARK    3  A    between atoms: _5  and  _8
REMARK    4  A    between atoms: _8  and  _9
REMARK    5  A    between atoms: _12  and  _13
REMARK    6  A    between atoms: _18  and  _20
REMARK    7  A    between atoms: _20  and  _21
REMARK    8  A    between atoms: _20  and  _23
REMARK    9  A    between atoms: _23  and  _24
REMARK   10  A    between atoms: _24  and  _25
REMARK   11  A    between atoms: _28  and  _30
REMARK   12  A    between atoms: _30  and  _31
REMARK   13  A    between atoms: _30  and  _33
REMARK   14  A    between atoms: _33  and  _34
REMARK   15  A    between atoms: _37  and  _39
REMARK   16  A    between atoms: _39  and  _40
REMARK   17  A    between atoms: _42  and  _44
REMARK   18  A    between atoms: _44  and  _45
REMARK   19  A    between atoms: _44  and  _47
REMARK   20  A    between atoms: _47  and  _48
REMARK   21  A    between atoms: _54  and  _56
REMARK   22  A    between atoms: _56  and  _57
REMARK   23  A    between atoms: _56  and  _59
REMARK   24  A    between atoms: _59  and  _60
REMARK   25  A    between atoms: _62  and  _64
REMARK   26  A    between atoms: _64  and  _65
REMARK   27  A    between atoms: _64  and  _67
REMARK   28  A    between atoms: _67  and  _68
REMARK   29  A    between atoms: _71  and  _73
REMARK   30  A    between atoms: _73  and  _74
REMARK   31  A    between atoms: _73  and  _76
REMARK   32  A    between atoms: _76  and  _77
REMARK   33  A    between atoms: _79  and  _81
REMARK   34  A    between atoms: _81  and  _82
REMARK   35  A    between atoms: _84  and  _86
REMARK   36  A    between atoms: _86  and  _87
REMARK   37  A    between atoms: _89  and  _91
REMARK   38  A    between atoms: _91  and  _92
REMARK   39  A    between atoms: _94  and  _96
REMARK   40  A    between atoms: _96  and  _97
REMARK   41  A    between atoms: _96  and  _99
REMARK   42  A    between atoms: _99  and  _100
REMARK   43  A    between atoms: _100  and  _101
REMARK   44  A    between atoms: _101  and  _102
REMARK   45  A    between atoms: _111  and  _113
REMARK   46  A    between atoms: _113  and  _114
REMARK   47  A    between atoms: _116  and  _118
REMARK   48  A    between atoms: _118  and  _119
REMARK   49  A    between atoms: _118  and  _121
REMARK   50  A    between atoms: _121  and  _122
REMARK   51  A    between atoms: _128  and  _129
REMARK   52  A    between atoms: _134  and  _136
REMARK   53  A    between atoms: _136  and  _137
REMARK   54  A    between atoms: _136  and  _139
REMARK   55  A    between atoms: _139  and  _140
REMARK   56  A    between atoms: _146  and  _148
REMARK   57  A    between atoms: _148  and  _149
REMARK   58  A    between atoms: _148  and  _151
REMARK   59  A    between atoms: _151  and  _152
REMARK   60  A    between atoms: _155  and  _157
REMARK   61  A    between atoms: _157  and  _158
REMARK   62  A    between atoms: _157  and  _160
REMARK   63  A    between atoms: _160  and  _161
REMARK   64  A    between atoms: _167  and  _169
REMARK   65  A    between atoms: _169  and  _170
REMARK   66  A    between atoms: _169  and  _172
REMARK   67  A    between atoms: _175  and  _177
REMARK   68  A    between atoms: _177  and  _178
REMARK   69  A    between atoms: _177  and  _180
REMARK   70  A    between atoms: _180  and  _181
REMARK   71  A    between atoms: _184  and  _186
REMARK   72  A    between atoms: _186  and  _187
REMARK   73  A    between atoms: _186  and  _189
REMARK   74  A    between atoms: _189  and  _190
REMARK   75  A    between atoms: _190  and  _191
REMARK   76  A    between atoms: _191  and  _192
REMARK   77  A    between atoms: _201  and  _203
REMARK   78  A    between atoms: _203  and  _204
REMARK   79  A    between atoms: _203  and  _206
REMARK   80  A    between atoms: _209  and  _211
REMARK   81  A    between atoms: _211  and  _212
REMARK   82  A    between atoms: _211  and  _214
REMARK   83  A    between atoms: _214  and  _215
REMARK   84  A    between atoms: _215  and  _216
REMARK   85  A    between atoms: _222  and  _223
REMARK   86  A    between atoms: _229  and  _230
REMARK   87  A    between atoms: _235  and  _237
REMARK   88  A    between atoms: _237  and  _238
REMARK   89  A    between atoms: _241  and  _243
REMARK   90  A    between atoms: _243  and  _244
REMARK   91  A    between atoms: _243  and  _246
REMARK   92  A    between atoms: _246  and  _247
REMARK   93  A    between atoms: _250  and  _252
REMARK   94  A    between atoms: _252  and  _253
REMARK   95  A    between atoms: _252  and  _255
REMARK   96  A    between atoms: _255  and  _256
REMARK   97  A    between atoms: _259  and  _261
REMARK   98  A    between atoms: _261  and  _262
REMARK   99  A    between atoms: _261  and  _264
REMARK  100  A    between atoms: _264  and  _265
REMARK  101  A    between atoms: _271  and  _273
REMARK  102  A    between atoms: _273  and  _274
REMARK  103  A    between atoms: _273  and  _276
REMARK  104  A    between atoms: _276  and  _277
REMARK  105  A    between atoms: _282  and  _284
REMARK  106  A    between atoms: _284  and  _285
REMARK  107  A    between atoms: _287  and  _289
REMARK  108  A    between atoms: _289  and  _290
REMARK  109  A    between atoms: _293  and  _295
REMARK  110  A    between atoms: _295  and  _296
REMARK  111  A    between atoms: _295  and  _298
REMARK  112  A    between atoms: _301  and  _303
REMARK  113  A    between atoms: _303  and  _304
REMARK  114  A    between atoms: _303  and  _306
REMARK  115  A    between atoms: _306  and  _307
REMARK  116  A    between atoms: _309  and  _311
REMARK  117  A    between atoms: _311  and  _312
REMARK  118  A    between atoms: _311  and  _314
REMARK  119  A    between atoms: _314  and  _315
REMARK  120  A    between atoms: _318  and  _320
REMARK  121  A    between atoms: _320  and  _321
REMARK  122  A    between atoms: _320  and  _323
REMARK  123  A    between atoms: _323  and  _324
REMARK  124  A    between atoms: _327  and  _329
REMARK  125  A    between atoms: _329  and  _330
REMARK  126  A    between atoms: _329  and  _332
REMARK  127  A    between atoms: _332  and  _333
REMARK  128  A    between atoms: _333  and  _334
REMARK  129  A    between atoms: _334  and  _335
REMARK  130  A    between atoms: _335  and  _336
REMARK  131  A    between atoms: _340  and  _342
REMARK  132  A    between atoms: _342  and  _343
REMARK  133  A    between atoms: _342  and  _345
REMARK  134  A    between atoms: _345  and  _346
REMARK  135  A    between atoms: _349  and  _351
REMARK  136  A    between atoms: _351  and  _352
REMARK  137  A    between atoms: _351  and  _354
REMARK  138  A    between atoms: _354  and  _355
REMARK  139  A    between atoms: _361  and  _363
REMARK  140  A    between atoms: _363  and  _364
REMARK  141  A    between atoms: _363  and  _366
REMARK  142  A    between atoms: _369  and  _371
REMARK  143  A    between atoms: _371  and  _372
REMARK  144  A    between atoms: _371  and  _374
REMARK  145  A    between atoms: _374  and  _375
REMARK  146  A    between atoms: _378  and  _380
REMARK  147  A    between atoms: _380  and  _381
REMARK  148  A    between atoms: _380  and  _383
REMARK  149  A    between atoms: _386  and  _388
REMARK  150  A    between atoms: _388  and  _389
REMARK  151  A    between atoms: _388  and  _391
REMARK  152  A    between atoms: _391  and  _392
REMARK  153  A    between atoms: _392  and  _393
REMARK  154  A    between atoms: _393  and  _394
REMARK  155  A    between atoms: _394  and  _395
REMARK  156  A    between atoms: _399  and  _401
REMARK  157  A    between atoms: _401  and  _402
REMARK  158  A    between atoms: _401  and  _404
REMARK  159  A    between atoms: _404  and  _405
REMARK  160  A    between atoms: _408  and  _410
REMARK  161  A    between atoms: _410  and  _411
REMARK  162  A    between atoms: _410  and  _413
REMARK  163  A    between atoms: _413  and  _414
REMARK  164  A    between atoms: _419  and  _420
REMARK  165  A    between atoms: _422  and  _424
REMARK  166  A    between atoms: _424  and  _425
REMARK  167  A    between atoms: _424  and  _427
REMARK  168  A    between atoms: _427  and  _428
REMARK  169  A    between atoms: _433  and  _434
REMARK  170  A    between atoms: _436  and  _438
REMARK  171  A    between atoms: _438  and  _439
REMARK  172  A    between atoms: _441  and  _443
REMARK  173  A    between atoms: _443  and  _444
REMARK  174  A    between atoms: _443  and  _446
REMARK  175  A    between atoms: _449  and  _451
REMARK  176  A    between atoms: _451  and  _452
REMARK  177  A    between atoms: _451  and  _454
REMARK  178  A    between atoms: _454  and  _455
REMARK  179  A    between atoms: _457  and  _459
REMARK  180  A    between atoms: _459  and  _460
REMARK  181  A    between atoms: _459  and  _462
REMARK  182  A    between atoms: _462  and  _463
REMARK  183  A    between atoms: _468  and  _469
REMARK  184  A    between atoms: _471  and  _473
REMARK  185  A    between atoms: _473  and  _474
REMARK  186  A    between atoms: _473  and  _476
REMARK  187  A    between atoms: _476  and  _477
REMARK  188  A    between atoms: _482  and  _483
REMARK  189  A    between atoms: _485  and  _487
REMARK  190  A    between atoms: _487  and  _488
REMARK  191  A    between atoms: _487  and  _490
REMARK  192  A    between atoms: _490  and  _491
REMARK  193  A    between atoms: _494  and  _496
REMARK  194  A    between atoms: _496  and  _497
REMARK  195  A    between atoms: _496  and  _499
REMARK  196  A    between atoms: _503  and  _504
REMARK  197  A    between atoms: _509  and  _511
REMARK  198  A    between atoms: _511  and  _512
REMARK  199  A    between atoms: _511  and  _514
REMARK  200  A    between atoms: _514  and  _515
REMARK  201  A    between atoms: _520  and  _521
REMARK  202  A    between atoms: _523  and  _525
REMARK  203  A    between atoms: _525  and  _526
REMARK  204  A    between atoms: _525  and  _528
REMARK  205  A    between atoms: _528  and  _529
REMARK  206  A    between atoms: _534  and  _535
REMARK  207  A    between atoms: _537  and  _539
REMARK  208  A    between atoms: _539  and  _540
REMARK  209  A    between atoms: _539  and  _542
REMARK  210  A    between atoms: _542  and  _543
REMARK  211  A    between atoms: _545  and  _547
REMARK  212  A    between atoms: _547  and  _548
REMARK  213  A    between atoms: _547  and  _550
REMARK  214  A    between atoms: _550  and  _551
REMARK  215  A    between atoms: _554  and  _556
REMARK  216  A    between atoms: _556  and  _557
REMARK  217  A    between atoms: _556  and  _559
REMARK  218  A    between atoms: _559  and  _560
REMARK  219  A    between atoms: _565  and  _566
REMARK  220  A    between atoms: _568  and  _570
REMARK  221  A    between atoms: _570  and  _571
REMARK  222  A    between atoms: _570  and  _573
REMARK  223  A    between atoms: _573  and  _574
REMARK  224  A    between atoms: _579  and  _580
REMARK  225  A    between atoms: _582  and  _584
REMARK  226  A    between atoms: _584  and  _585
REMARK  227  A    between atoms: _587  and  _589
REMARK  228  A    between atoms: _589  and  _590
REMARK  229  A    between atoms: _589  and  _592
REMARK  230  A    between atoms: _592  and  _593
REMARK  231  A    between atoms: _595  and  _597
REMARK  232  A    between atoms: _597  and  _598
REMARK  233  A    between atoms: _597  and  _600
REMARK  234  A    between atoms: _600  and  _601
REMARK  235  A    between atoms: _606  and  _608
REMARK  236  A    between atoms: _608  and  _609
REMARK  237  A    between atoms: _608  and  _611
REMARK  238  A    between atoms: _611  and  _612
REMARK  239  A    between atoms: _617  and  _618
REMARK                            x       y       z     vdW  Elec       q    Type
REMARK                         _______ _______ _______ _____ _____    ______ ____
ROOT
ATOM      1  O   HOH     1       4.556 -18.903 -16.882  0.00  0.00    +0.000 OA
ENDROOT
TORSDOF 0
REMARK  Name = ../refined-set-2016/2qbw/2qbw_pocket.pdb
REMARK  239 active torsions:
REMARK  status: ('A' for Active; 'I' for Inactive)
REMARK    1  A    between atoms: _1  and  _5
REMARK    2  A    between atoms: _5  and  _6
REMARK    3  A    between atoms: _5  and  _8
REMARK    4  A    between atoms: _8  and  _9
REMARK    5  A    between atoms: _12  and  _13
REMARK    6  A    between atoms: _18  and  _20
REMARK    7  A    between atoms: _20  and  _21
REMARK    8  A    between atoms: _20  and  _23
REMARK    9  A    between atoms: _23  and  _24
REMARK   10  A    between atoms: _24  and  _25
REMARK   11  A    between atoms: _28  and  _30
REMARK   12  A    between atoms: _30  and  _31
REMARK   13  A    between atoms: _30  and  _33
REMARK   14  A    between atoms: _33  and  _34
REMARK   15  A    between atoms: _37  and  _39
REMARK   16  A    between atoms: _39  and  _40
REMARK   17  A    between atoms: _42  and  _44
REMARK   18  A    between atoms: _44  and  _45
REMARK   19  A    between atoms: _44  and  _47
REMARK   20  A    between atoms: _47  and  _48
REMARK   21  A    between atoms: _54  and  _56
REMARK   22  A    between atoms: _56  and  _57
REMARK   23  A    between atoms: _56  and  _59
REMARK   24  A    between atoms: _59  and  _60
REMARK   25  A    between atoms: _62  and  _64
REMARK   26  A    between atoms: _64  and  _65
REMARK   27  A    between atoms: _64  and  _67
REMARK   28  A    between atoms: _67  and  _68
REMARK   29  A    between atoms: _71  and  _73
REMARK   30  A    between atoms: _73  and  _74
REMARK   31  A    between atoms: _73  and  _76
REMARK   32  A    between atoms: _76  and  _77
REMARK   33  A    between atoms: _79  and  _81
REMARK   34  A    between atoms: _81  and  _82
REMARK   35  A    between atoms: _84  and  _86
REMARK   36  A    between atoms: _86  and  _87
REMARK   37  A    between atoms: _89  and  _91
REMARK   38  A    between atoms: _91  and  _92
REMARK   39  A    between atoms: _94  and  _96
REMARK   40  A    between atoms: _96  and  _97
REMARK   41  A    between atoms: _96  and  _99
REMARK   42  A    between atoms: _99  and  _100
REMARK   43  A    between atoms: _100  and  _101
REMARK   44  A    between atoms: _101  and  _102
REMARK   45  A    between atoms: _111  and  _113
REMARK   46  A    between atoms: _113  and  _114
REMARK   47  A    between atoms: _116  and  _118
REMARK   48  A    between atoms: _118  and  _119
REMARK   49  A    between atoms: _118  and  _121
REMARK   50  A    between atoms: _121  and  _122
REMARK   51  A    between atoms: _128  and  _129
REMARK   52  A    between atoms: _134  and  _136
REMARK   53  A    between atoms: _136  and  _137
REMARK   54  A    between atoms: _136  and  _139
REMARK   55  A    between atoms: _139  and  _140
REMARK   56  A    between atoms: _146  and  _148
REMARK   57  A    between atoms: _148  and  _149
REMARK   58  A    between atoms: _148  and  _151
REMARK   59  A    between atoms: _151  and  _152
REMARK   60  A    between atoms: _155  and  _157
REMARK   61  A    between atoms: _157  and  _158
REMARK   62  A    between atoms: _157  and  _160
REMARK   63  A    between atoms: _160  and  _161
REMARK   64  A    between atoms: _167  and  _169
REMARK   65  A    between atoms: _169  and  _170
REMARK   66  A    between atoms: _169  and  _172
REMARK   67  A    between atoms: _175  and  _177
REMARK   68  A    between atoms: _177  and  _178
REMARK   69  A    between atoms: _177  and  _180
REMARK   70  A    between atoms: _180  and  _181
REMARK   71  A    between atoms: _184  and  _186
REMARK   72  A    between atoms: _186  and  _187
REMARK   73  A    between atoms: _186  and  _189
REMARK   74  A    between atoms: _189  and  _190
REMARK   75  A    between atoms: _190  and  _191
REMARK   76  A    between atoms: _191  and  _192
REMARK   77  A    between atoms: _201  and  _203
REMARK   78  A    between atoms: _203  and  _204
REMARK   79  A    between atoms: _203  and  _206
REMARK   80  A    between atoms: _209  and  _211
REMARK   81  A    between atoms: _211  and  _212
REMARK   82  A    between atoms: _211  and  _214
REMARK   83  A    between atoms: _214  and  _215
REMARK   84  A    between atoms: _215  and  _216
REMARK   85  A    between atoms: _222  and  _223
REMARK   86  A    between atoms: _229  and  _230
REMARK   87  A    between atoms: _235  and  _237
REMARK   88  A    between atoms: _237  and  _238
REMARK   89  A    between atoms: _241  and  _243
REMARK   90  A    between atoms: _243  and  _244
REMARK   91  A    between atoms: _243  and  _246
REMARK   92  A    between atoms: _246  and  _247
REMARK   93  A    between atoms: _250  and  _252
REMARK   94  A    between atoms: _252  and  _253
REMARK   95  A    between atoms: _252  and  _255
REMARK   96  A    between atoms: _255  and  _256
REMARK   97  A    between atoms: _259  and  _261
REMARK   98  A    between atoms: _261  and  _262
REMARK   99  A    between atoms: _261  and  _264
REMARK  100  A    between atoms: _264  and  _265
REMARK  101  A    between atoms: _271  and  _273
REMARK  102  A    between atoms: _273  and  _274
REMARK  103  A    between atoms: _273  and  _276
REMARK  104  A    between atoms: _276  and  _277
REMARK  105  A    between atoms: _282  and  _284
REMARK  106  A    between atoms: _284  and  _285
REMARK  107  A    between atoms: _287  and  _289
REMARK  108  A    between atoms: _289  and  _290
REMARK  109  A    between atoms: _293  and  _295
REMARK  110  A    between atoms: _295  and  _296
REMARK  111  A    between atoms: _295  and  _298
REMARK  112  A    between atoms: _301  and  _303
REMARK  113  A    between atoms: _303  and  _304
REMARK  114  A    between atoms: _303  and  _306
REMARK  115  A    between atoms: _306  and  _307
REMARK  116  A    between atoms: _309  and  _311
REMARK  117  A    between atoms: _311  and  _312
REMARK  118  A    between atoms: _311  and  _314
REMARK  119  A    between atoms: _314  and  _315
REMARK  120  A    between atoms: _318  and  _320
REMARK  121  A    between atoms: _320  and  _321
REMARK  122  A    between atoms: _320  and  _323
REMARK  123  A    between atoms: _323  and  _324
REMARK  124  A    between atoms: _327  and  _329
REMARK  125  A    between atoms: _329  and  _330
REMARK  126  A    between atoms: _329  and  _332
REMARK  127  A    between atoms: _332  and  _333
REMARK  128  A    between atoms: _333  and  _334
REMARK  129  A    between atoms: _334  and  _335
REMARK  130  A    between atoms: _335  and  _336
REMARK  131  A    between atoms: _340  and  _342
REMARK  132  A    between atoms: _342  and  _343
REMARK  133  A    between atoms: _342  and  _345
REMARK  134  A    between atoms: _345  and  _346
REMARK  135  A    between atoms: _349  and  _351
REMARK  136  A    between atoms: _351  and  _352
REMARK  137  A    between atoms: _351  and  _354
REMARK  138  A    between atoms: _354  and  _355
REMARK  139  A    between atoms: _361  and  _363
REMARK  140  A    between atoms: _363  and  _364
REMARK  141  A    between atoms: _363  and  _366
REMARK  142  A    between atoms: _369  and  _371
REMARK  143  A    between atoms: _371  and  _372
REMARK  144  A    between atoms: _371  and  _374
REMARK  145  A    between atoms: _374  and  _375
REMARK  146  A    between atoms: _378  and  _380
REMARK  147  A    between atoms: _380  and  _381
REMARK  148  A    between atoms: _380  and  _383
REMARK  149  A    between atoms: _386  and  _388
REMARK  150  A    between atoms: _388  and  _389
REMARK  151  A    between atoms: _388  and  _391
REMARK  152  A    between atoms: _391  and  _392
REMARK  153  A    between atoms: _392  and  _393
REMARK  154  A    between atoms: _393  and  _394
REMARK  155  A    between atoms: _394  and  _395
REMARK  156  A    between atoms: _399  and  _401
REMARK  157  A    between atoms: _401  and  _402
REMARK  158  A    between atoms: _401  and  _404
REMARK  159  A    between atoms: _404  and  _405
REMARK  160  A    between atoms: _408  and  _410
REMARK  161  A    between atoms: _410  and  _411
REMARK  162  A    between atoms: _410  and  _413
REMARK  163  A    between atoms: _413  and  _414
REMARK  164  A    between atoms: _419  and  _420
REMARK  165  A    between atoms: _422  and  _424
REMARK  166  A    between atoms: _424  and  _425
REMARK  167  A    between atoms: _424  and  _427
REMARK  168  A    between atoms: _427  and  _428
REMARK  169  A    between atoms: _433  and  _434
REMARK  170  A    between atoms: _436  and  _438
REMARK  171  A    between atoms: _438  and  _439
REMARK  172  A    between atoms: _441  and  _443
REMARK  173  A    between atoms: _443  and  _444
REMARK  174  A    between atoms: _443  and  _446
REMARK  175  A    between atoms: _449  and  _451
REMARK  176  A    between atoms: _451  and  _452
REMARK  177  A    between atoms: _451  and  _454
REMARK  178  A    between atoms: _454  and  _455
REMARK  179  A    between atoms: _457  and  _459
REMARK  180  A    between atoms: _459  and  _460
REMARK  181  A    between atoms: _459  and  _462
REMARK  182  A    between atoms: _462  and  _463
REMARK  183  A    between atoms: _468  and  _469
REMARK  184  A    between atoms: _471  and  _473
REMARK  185  A    between atoms: _473  and  _474
REMARK  186  A    between atoms: _473  and  _476
REMARK  187  A    between atoms: _476  and  _477
REMARK  188  A    between atoms: _482  and  _483
REMARK  189  A    between atoms: _485  and  _487
REMARK  190  A    between atoms: _487  and  _488
REMARK  191  A    between atoms: _487  and  _490
REMARK  192  A    between atoms: _490  and  _491
REMARK  193  A    between atoms: _494  and  _496
REMARK  194  A    between atoms: _496  and  _497
REMARK  195  A    between atoms: _496  and  _499
REMARK  196  A    between atoms: _503  and  _504
REMARK  197  A    between atoms: _509  and  _511
REMARK  198  A    between atoms: _511  and  _512
REMARK  199  A    between atoms: _511  and  _514
REMARK  200  A    between atoms: _514  and  _515
REMARK  201  A    between atoms: _520  and  _521
REMARK  202  A    between atoms: _523  and  _525
REMARK  203  A    between atoms: _525  and  _526
REMARK  204  A    between atoms: _525  and  _528
REMARK  205  A    between atoms: _528  and  _529
REMARK  206  A    between atoms: _534  and  _535
REMARK  207  A    between atoms: _537  and  _539
REMARK  208  A    between atoms: _539  and  _540
REMARK  209  A    between atoms: _539  and  _542
REMARK  210  A    between atoms: _542  and  _543
REMARK  211  A    between atoms: _545  and  _547
REMARK  212  A    between atoms: _547  and  _548
REMARK  213  A    between atoms: _547  and  _550
REMARK  214  A    between atoms: _550  and  _551
REMARK  215  A    between atoms: _554  and  _556
REMARK  216  A    between atoms: _556  and  _557
REMARK  217  A    between atoms: _556  and  _559
REMARK  218  A    between atoms: _559  and  _560
REMARK  219  A    between atoms: _565  and  _566
REMARK  220  A    between atoms: _568  and  _570
REMARK  221  A    between atoms: _570  and  _571
REMARK  222  A    between atoms: _570  and  _573
REMARK  223  A    between atoms: _573  and  _574
REMARK  224  A    between atoms: _579  and  _580
REMARK  225  A    between atoms: _582  and  _584
REMARK  226  A    between atoms: _584  and  _585
REMARK  227  A    between atoms: _587  and  _589
REMARK  228  A    between atoms: _589  and  _590
REMARK  229  A    between atoms: _589  and  _592
REMARK  230  A    between atoms: _592  and  _593
REMARK  231  A    between atoms: _595  and  _597
REMARK  232  A    between atoms: _597  and  _598
REMARK  233  A    between atoms: _597  and  _600
REMARK  234  A    between atoms: _600  and  _601
REMARK  235  A    between atoms: _606  and  _608
REMARK  236  A    between atoms: _608  and  _609
REMARK  237  A    between atoms: _608  and  _611
REMARK  238  A    between atoms: _611  and  _612
REMARK  239  A    between atoms: _617  and  _618
REMARK                            x       y       z     vdW  Elec       q    Type
REMARK                         _______ _______ _______ _____ _____    ______ ____
ROOT
ATOM      1  O   HOH     1      -8.195 -10.755  -6.303  0.00  0.00    +0.000 OA
ENDROOT
TORSDOF 0
REMARK  Name = ../refined-set-2016/2qbw/2qbw_pocket.pdb
REMARK  239 active torsions:
REMARK  status: ('A' for Active; 'I' for Inactive)
REMARK    1  A    between atoms: _1  and  _5
REMARK    2  A    between atoms: _5  and  _6
REMARK    3  A    between atoms: _5  and  _8
REMARK    4  A    between atoms: _8  and  _9
REMARK    5  A    between atoms: _12  and  _13
REMARK    6  A    between atoms: _18  and  _20
REMARK    7  A    between atoms: _20  and  _21
REMARK    8  A    between atoms: _20  and  _23
REMARK    9  A    between atoms: _23  and  _24
REMARK   10  A    between atoms: _24  and  _25
REMARK   11  A    between atoms: _28  and  _30
REMARK   12  A    between atoms: _30  and  _31
REMARK   13  A    between atoms: _30  and  _33
REMARK   14  A    between atoms: _33  and  _34
REMARK   15  A    between atoms: _37  and  _39
REMARK   16  A    between atoms: _39  and  _40
REMARK   17  A    between atoms: _42  and  _44
REMARK   18  A    between atoms: _44  and  _45
REMARK   19  A    between atoms: _44  and  _47
REMARK   20  A    between atoms: _47  and  _48
REMARK   21  A    between atoms: _54  and  _56
REMARK   22  A    between atoms: _56  and  _57
REMARK   23  A    between atoms: _56  and  _59
REMARK   24  A    between atoms: _59  and  _60
REMARK   25  A    between atoms: _62  and  _64
REMARK   26  A    between atoms: _64  and  _65
REMARK   27  A    between atoms: _64  and  _67
REMARK   28  A    between atoms: _67  and  _68
REMARK   29  A    between atoms: _71  and  _73
REMARK   30  A    between atoms: _73  and  _74
REMARK   31  A    between atoms: _73  and  _76
REMARK   32  A    between atoms: _76  and  _77
REMARK   33  A    between atoms: _79  and  _81
REMARK   34  A    between atoms: _81  and  _82
REMARK   35  A    between atoms: _84  and  _86
REMARK   36  A    between atoms: _86  and  _87
REMARK   37  A    between atoms: _89  and  _91
REMARK   38  A    between atoms: _91  and  _92
REMARK   39  A    between atoms: _94  and  _96
REMARK   40  A    between atoms: _96  and  _97
REMARK   41  A    between atoms: _96  and  _99
REMARK   42  A    between atoms: _99  and  _100
REMARK   43  A    between atoms: _100  and  _101
REMARK   44  A    between atoms: _101  and  _102
REMARK   45  A    between atoms: _111  and  _113
REMARK   46  A    between atoms: _113  and  _114
REMARK   47  A    between atoms: _116  and  _118
REMARK   48  A    between atoms: _118  and  _119
REMARK   49  A    between atoms: _118  and  _121
REMARK   50  A    between atoms: _121  and  _122
REMARK   51  A    between atoms: _128  and  _129
REMARK   52  A    between atoms: _134  and  _136
REMARK   53  A    between atoms: _136  and  _137
REMARK   54  A    between atoms: _136  and  _139
REMARK   55  A    between atoms: _139  and  _140
REMARK   56  A    between atoms: _146  and  _148
REMARK   57  A    between atoms: _148  and  _149
REMARK   58  A    between atoms: _148  and  _151
REMARK   59  A    between atoms: _151  and  _152
REMARK   60  A    between atoms: _155  and  _157
REMARK   61  A    between atoms: _157  and  _158
REMARK   62  A    between atoms: _157  and  _160
REMARK   63  A    between atoms: _160  and  _161
REMARK   64  A    between atoms: _167  and  _169
REMARK   65  A    between atoms: _169  and  _170
REMARK   66  A    between atoms: _169  and  _172
REMARK   67  A    between atoms: _175  and  _177
REMARK   68  A    between atoms: _177  and  _178
REMARK   69  A    between atoms: _177  and  _180
REMARK   70  A    between atoms: _180  and  _181
REMARK   71  A    between atoms: _184  and  _186
REMARK   72  A    between atoms: _186  and  _187
REMARK   73  A    between atoms: _186  and  _189
REMARK   74  A    between atoms: _189  and  _190
REMARK   75  A    between atoms: _190  and  _191
REMARK   76  A    between atoms: _191  and  _192
REMARK   77  A    between atoms: _201  and  _203
REMARK   78  A    between atoms: _203  and  _204
REMARK   79  A    between atoms: _203  and  _206
REMARK   80  A    between atoms: _209  and  _211
REMARK   81  A    between atoms: _211  and  _212
REMARK   82  A    between atoms: _211  and  _214
REMARK   83  A    between atoms: _214  and  _215
REMARK   84  A    between atoms: _215  and  _216
REMARK   85  A    between atoms: _222  and  _223
REMARK   86  A    between atoms: _229  and  _230
REMARK   87  A    between atoms: _235  and  _237
REMARK   88  A    between atoms: _237  and  _238
REMARK   89  A    between atoms: _241  and  _243
REMARK   90  A    between atoms: _243  and  _244
REMARK   91  A    between atoms: _243  and  _246
REMARK   92  A    between atoms: _246  and  _247
REMARK   93  A    between atoms: _250  and  _252
REMARK   94  A    between atoms: _252  and  _253
REMARK   95  A    between atoms: _252  and  _255
REMARK   96  A    between atoms: _255  and  _256
REMARK   97  A    between atoms: _259  and  _261
REMARK   98  A    between atoms: _261  and  _262
REMARK   99  A    between atoms: _261  and  _264
REMARK  100  A    between atoms: _264  and  _265
REMARK  101  A    between atoms: _271  and  _273
REMARK  102  A    between atoms: _273  and  _274
REMARK  103  A    between atoms: _273  and  _276
REMARK  104  A    between atoms: _276  and  _277
REMARK  105  A    between atoms: _282  and  _284
REMARK  106  A    between atoms: _284  and  _285
REMARK  107  A    between atoms: _287  and  _289
REMARK  108  A    between atoms: _289  and  _290
REMARK  109  A    between atoms: _293  and  _295
REMARK  110  A    between atoms: _295  and  _296
REMARK  111  A    between atoms: _295  and  _298
REMARK  112  A    between atoms: _301  and  _303
REMARK  113  A    between atoms: _303  and  _304
REMARK  114  A    between atoms: _303  and  _306
REMARK  115  A    between atoms: _306  and  _307
REMARK  116  A    between atoms: _309  and  _311
REMARK  117  A    between atoms: _311  and  _312
REMARK  118  A    between atoms: _311  and  _314
REMARK  119  A    between atoms: _314  and  _315
REMARK  120  A    between atoms: _318  and  _320
REMARK  121  A    between atoms: _320  and  _321
REMARK  122  A    between atoms: _320  and  _323
REMARK  123  A    between atoms: _323  and  _324
REMARK  124  A    between atoms: _327  and  _329
REMARK  125  A    between atoms: _329  and  _330
REMARK  126  A    between atoms: _329  and  _332
REMARK  127  A    between atoms: _332  and  _333
REMARK  128  A    between atoms: _333  and  _334
REMARK  129  A    between atoms: _334  and  _335
REMARK  130  A    between atoms: _335  and  _336
REMARK  131  A    between atoms: _340  and  _342
REMARK  132  A    between atoms: _342  and  _343
REMARK  133  A    between atoms: _342  and  _345
REMARK  134  A    between atoms: _345  and  _346
REMARK  135  A    between atoms: _349  and  _351
REMARK  136  A    between atoms: _351  and  _352
REMARK  137  A    between atoms: _351  and  _354
REMARK  138  A    between atoms: _354  and  _355
REMARK  139  A    between atoms: _361  and  _363
REMARK  140  A    between atoms: _363  and  _364
REMARK  141  A    between atoms: _363  and  _366
REMARK  142  A    between atoms: _369  and  _371
REMARK  143  A    between atoms: _371  and  _372
REMARK  144  A    between atoms: _371  and  _374
REMARK  145  A    between atoms: _374  and  _375
REMARK  146  A    between atoms: _378  and  _380
REMARK  147  A    between atoms: _380  and  _381
REMARK  148  A    between atoms: _380  and  _383
REMARK  149  A    between atoms: _386  and  _388
REMARK  150  A    between atoms: _388  and  _389
REMARK  151  A    between atoms: _388  and  _391
REMARK  152  A    between atoms: _391  and  _392
REMARK  153  A    between atoms: _392  and  _393
REMARK  154  A    between atoms: _393  and  _394
REMARK  155  A    between atoms: _394  and  _395
REMARK  156  A    between atoms: _399  and  _401
REMARK  157  A    between atoms: _401  and  _402
REMARK  158  A    between atoms: _401  and  _404
REMARK  159  A    between atoms: _404  and  _405
REMARK  160  A    between atoms: _408  and  _410
REMARK  161  A    between atoms: _410  and  _411
REMARK  162  A    between atoms: _410  and  _413
REMARK  163  A    between atoms: _413  and  _414
REMARK  164  A    between atoms: _419  and  _420
REMARK  165  A    between atoms: _422  and  _424
REMARK  166  A    between atoms: _424  and  _425
REMARK  167  A    between atoms: _424  and  _427
REMARK  168  A    between atoms: _427  and  _428
REMARK  169  A    between atoms: _433  and  _434
REMARK  170  A    between atoms: _436  and  _438
REMARK  171  A    between atoms: _438  and  _439
REMARK  172  A    between atoms: _441  and  _443
REMARK  173  A    between atoms: _443  and  _444
REMARK  174  A    between atoms: _443  and  _446
REMARK  175  A    between atoms: _449  and  _451
REMARK  176  A    between atoms: _451  and  _452
REMARK  177  A    between atoms: _451  and  _454
REMARK  178  A    between atoms: _454  and  _455
REMARK  179  A    between atoms: _457  and  _459
REMARK  180  A    between atoms: _459  and  _460
REMARK  181  A    between atoms: _459  and  _462
REMARK  182  A    between atoms: _462  and  _463
REMARK  183  A    between atoms: _468  and  _469
REMARK  184  A    between atoms: _471  and  _473
REMARK  185  A    between atoms: _473  and  _474
REMARK  186  A    between atoms: _473  and  _476
REMARK  187  A    between atoms: _476  and  _477
REMARK  188  A    between atoms: _482  and  _483
REMARK  189  A    between atoms: _485  and  _487
REMARK  190  A    between atoms: _487  and  _488
REMARK  191  A    between atoms: _487  and  _490
REMARK  192  A    between atoms: _490  and  _491
REMARK  193  A    between atoms: _494  and  _496
REMARK  194  A    between atoms: _496  and  _497
REMARK  195  A    between atoms: _496  and  _499
REMARK  196  A    between atoms: _503  and  _504
REMARK  197  A    between atoms: _509  and  _511
REMARK  198  A    between atoms: _511  and  _512
REMARK  199  A    between atoms: _511  and  _514
REMARK  200  A    between atoms: _514  and  _515
REMARK  201  A    between atoms: _520  and  _521
REMARK  202  A    between atoms: _523  and  _525
REMARK  203  A    between atoms: _525  and  _526
REMARK  204  A    between atoms: _525  and  _528
REMARK  205  A    between atoms: _528  and  _529
REMARK  206  A    between atoms: _534  and  _535
REMARK  207  A    between atoms: _537  and  _539
REMARK  208  A    between atoms: _539  and  _540
REMARK  209  A    between atoms: _539  and  _542
REMARK  210  A    between atoms: _542  and  _543
REMARK  211  A    between atoms: _545  and  _547
REMARK  212  A    between atoms: _547  and  _548
REMARK  213  A    between atoms: _547  and  _550
REMARK  214  A    between atoms: _550  and  _551
REMARK  215  A    between atoms: _554  and  _556
REMARK  216  A    between atoms: _556  and  _557
REMARK  217  A    between atoms: _556  and  _559
REMARK  218  A    between atoms: _559  and  _560
REMARK  219  A    between atoms: _565  and  _566
REMARK  220  A    between atoms: _568  and  _570
REMARK  221  A    between atoms: _570  and  _571
REMARK  222  A    between atoms: _570  and  _573
REMARK  223  A    between atoms: _573  and  _574
REMARK  224  A    between atoms: _579  and  _580
REMARK  225  A    between atoms: _582  and  _584
REMARK  226  A    between atoms: _584  and  _585
REMARK  227  A    between atoms: _587  and  _589
REMARK  228  A    between atoms: _589  and  _590
REMARK  229  A    between atoms: _589  and  _592
REMARK  230  A    between atoms: _592  and  _593
REMARK  231  A    between atoms: _595  and  _597
REMARK  232  A    between atoms: _597  and  _598
REMARK  233  A    between atoms: _597  and  _600
REMARK  234  A    between atoms: _600  and  _601
REMARK  235  A    between atoms: _606  and  _608
REMARK  236  A    between atoms: _608  and  _609
REMARK  237  A    between atoms: _608  and  _611
REMARK  238  A    between atoms: _611  and  _612
REMARK  239  A    between atoms: _617  and  _618
REMARK                            x       y       z     vdW  Elec       q    Type
REMARK                         _______ _______ _______ _____ _____    ______ ____
ROOT
ATOM      1  O   HOH     1      -3.437  -7.525 -16.349  0.00  0.00    +0.000 OA
ENDROOT
TORSDOF 0
REMARK  Name = ../refined-set-2016/2qbw/2qbw_pocket.pdb
REMARK  239 active torsions:
REMARK  status: ('A' for Active; 'I' for Inactive)
REMARK    1  A    between atoms: _1  and  _5
REMARK    2  A    between atoms: _5  and  _6
REMARK    3  A    between atoms: _5  and  _8
REMARK    4  A    between atoms: _8  and  _9
REMARK    5  A    between atoms: _12  and  _13
REMARK    6  A    between atoms: _18  and  _20
REMARK    7  A    between atoms: _20  and  _21
REMARK    8  A    between atoms: _20  and  _23
REMARK    9  A    between atoms: _23  and  _24
REMARK   10  A    between atoms: _24  and  _25
REMARK   11  A    between atoms: _28  and  _30
REMARK   12  A    between atoms: _30  and  _31
REMARK   13  A    between atoms: _30  and  _33
REMARK   14  A    between atoms: _33  and  _34
REMARK   15  A    between atoms: _37  and  _39
REMARK   16  A    between atoms: _39  and  _40
REMARK   17  A    between atoms: _42  and  _44
REMARK   18  A    between atoms: _44  and  _45
REMARK   19  A    between atoms: _44  and  _47
REMARK   20  A    between atoms: _47  and  _48
REMARK   21  A    between atoms: _54  and  _56
REMARK   22  A    between atoms: _56  and  _57
REMARK   23  A    between atoms: _56  and  _59
REMARK   24  A    between atoms: _59  and  _60
REMARK   25  A    between atoms: _62  and  _64
REMARK   26  A    between atoms: _64  and  _65
REMARK   27  A    between atoms: _64  and  _67
REMARK   28  A    between atoms: _67  and  _68
REMARK   29  A    between atoms: _71  and  _73
REMARK   30  A    between atoms: _73  and  _74
REMARK   31  A    between atoms: _73  and  _76
REMARK   32  A    between atoms: _76  and  _77
REMARK   33  A    between atoms: _79  and  _81
REMARK   34  A    between atoms: _81  and  _82
REMARK   35  A    between atoms: _84  and  _86
REMARK   36  A    between atoms: _86  and  _87
REMARK   37  A    between atoms: _89  and  _91
REMARK   38  A    between atoms: _91  and  _92
REMARK   39  A    between atoms: _94  and  _96
REMARK   40  A    between atoms: _96  and  _97
REMARK   41  A    between atoms: _96  and  _99
REMARK   42  A    between atoms: _99  and  _100
REMARK   43  A    between atoms: _100  and  _101
REMARK   44  A    between atoms: _101  and  _102
REMARK   45  A    between atoms: _111  and  _113
REMARK   46  A    between atoms: _113  and  _114
REMARK   47  A    between atoms: _116  and  _118
REMARK   48  A    between atoms: _118  and  _119
REMARK   49  A    between atoms: _118  and  _121
REMARK   50  A    between atoms: _121  and  _122
REMARK   51  A    between atoms: _128  and  _129
REMARK   52  A    between atoms: _134  and  _136
REMARK   53  A    between atoms: _136  and  _137
REMARK   54  A    between atoms: _136  and  _139
REMARK   55  A    between atoms: _139  and  _140
REMARK   56  A    between atoms: _146  and  _148
REMARK   57  A    between atoms: _148  and  _149
REMARK   58  A    between atoms: _148  and  _151
REMARK   59  A    between atoms: _151  and  _152
REMARK   60  A    between atoms: _155  and  _157
REMARK   61  A    between atoms: _157  and  _158
REMARK   62  A    between atoms: _157  and  _160
REMARK   63  A    between atoms: _160  and  _161
REMARK   64  A    between atoms: _167  and  _169
REMARK   65  A    between atoms: _169  and  _170
REMARK   66  A    between atoms: _169  and  _172
REMARK   67  A    between atoms: _175  and  _177
REMARK   68  A    between atoms: _177  and  _178
REMARK   69  A    between atoms: _177  and  _180
REMARK   70  A    between atoms: _180  and  _181
REMARK   71  A    between atoms: _184  and  _186
REMARK   72  A    between atoms: _186  and  _187
REMARK   73  A    between atoms: _186  and  _189
REMARK   74  A    between atoms: _189  and  _190
REMARK   75  A    between atoms: _190  and  _191
REMARK   76  A    between atoms: _191  and  _192
REMARK   77  A    between atoms: _201  and  _203
REMARK   78  A    between atoms: _203  and  _204
REMARK   79  A    between atoms: _203  and  _206
REMARK   80  A    between atoms: _209  and  _211
REMARK   81  A    between atoms: _211  and  _212
REMARK   82  A    between atoms: _211  and  _214
REMARK   83  A    between atoms: _214  and  _215
REMARK   84  A    between atoms: _215  and  _216
REMARK   85  A    between atoms: _222  and  _223
REMARK   86  A    between atoms: _229  and  _230
REMARK   87  A    between atoms: _235  and  _237
REMARK   88  A    between atoms: _237  and  _238
REMARK   89  A    between atoms: _241  and  _243
REMARK   90  A    between atoms: _243  and  _244
REMARK   91  A    between atoms: _243  and  _246
REMARK   92  A    between atoms: _246  and  _247
REMARK   93  A    between atoms: _250  and  _252
REMARK   94  A    between atoms: _252  and  _253
REMARK   95  A    between atoms: _252  and  _255
REMARK   96  A    between atoms: _255  and  _256
REMARK   97  A    between atoms: _259  and  _261
REMARK   98  A    between atoms: _261  and  _262
REMARK   99  A    between atoms: _261  and  _264
REMARK  100  A    between atoms: _264  and  _265
REMARK  101  A    between atoms: _271  and  _273
REMARK  102  A    between atoms: _273  and  _274
REMARK  103  A    between atoms: _273  and  _276
REMARK  104  A    between atoms: _276  and  _277
REMARK  105  A    between atoms: _282  and  _284
REMARK  106  A    between atoms: _284  and  _285
REMARK  107  A    between atoms: _287  and  _289
REMARK  108  A    between atoms: _289  and  _290
REMARK  109  A    between atoms: _293  and  _295
REMARK  110  A    between atoms: _295  and  _296
REMARK  111  A    between atoms: _295  and  _298
REMARK  112  A    between atoms: _301  and  _303
REMARK  113  A    between atoms: _303  and  _304
REMARK  114  A    between atoms: _303  and  _306
REMARK  115  A    between atoms: _306  and  _307
REMARK  116  A    between atoms: _309  and  _311
REMARK  117  A    between atoms: _311  and  _312
REMARK  118  A    between atoms: _311  and  _314
REMARK  119  A    between atoms: _314  and  _315
REMARK  120  A    between atoms: _318  and  _320
REMARK  121  A    between atoms: _320  and  _321
REMARK  122  A    between atoms: _320  and  _323
REMARK  123  A    between atoms: _323  and  _324
REMARK  124  A    between atoms: _327  and  _329
REMARK  125  A    between atoms: _329  and  _330
REMARK  126  A    between atoms: _329  and  _332
REMARK  127  A    between atoms: _332  and  _333
REMARK  128  A    between atoms: _333  and  _334
REMARK  129  A    between atoms: _334  and  _335
REMARK  130  A    between atoms: _335  and  _336
REMARK  131  A    between atoms: _340  and  _342
REMARK  132  A    between atoms: _342  and  _343
REMARK  133  A    between atoms: _342  and  _345
REMARK  134  A    between atoms: _345  and  _346
REMARK  135  A    between atoms: _349  and  _351
REMARK  136  A    between atoms: _351  and  _352
REMARK  137  A    between atoms: _351  and  _354
REMARK  138  A    between atoms: _354  and  _355
REMARK  139  A    between atoms: _361  and  _363
REMARK  140  A    between atoms: _363  and  _364
REMARK  141  A    between atoms: _363  and  _366
REMARK  142  A    between atoms: _369  and  _371
REMARK  143  A    between atoms: _371  and  _372
REMARK  144  A    between atoms: _371  and  _374
REMARK  145  A    between atoms: _374  and  _375
REMARK  146  A    between atoms: _378  and  _380
REMARK  147  A    between atoms: _380  and  _381
REMARK  148  A    between atoms: _380  and  _383
REMARK  149  A    between atoms: _386  and  _388
REMARK  150  A    between atoms: _388  and  _389
REMARK  151  A    between atoms: _388  and  _391
REMARK  152  A    between atoms: _391  and  _392
REMARK  153  A    between atoms: _392  and  _393
REMARK  154  A    between atoms: _393  and  _394
REMARK  155  A    between atoms: _394  and  _395
REMARK  156  A    between atoms: _399  and  _401
REMARK  157  A    between atoms: _401  and  _402
REMARK  158  A    between atoms: _401  and  _404
REMARK  159  A    between atoms: _404  and  _405
REMARK  160  A    between atoms: _408  and  _410
REMARK  161  A    between atoms: _410  and  _411
REMARK  162  A    between atoms: _410  and  _413
REMARK  163  A    between atoms: _413  and  _414
REMARK  164  A    between atoms: _419  and  _420
REMARK  165  A    between atoms: _422  and  _424
REMARK  166  A    between atoms: _424  and  _425
REMARK  167  A    between atoms: _424  and  _427
REMARK  168  A    between atoms: _427  and  _428
REMARK  169  A    between atoms: _433  and  _434
REMARK  170  A    between atoms: _436  and  _438
REMARK  171  A    between atoms: _438  and  _439
REMARK  172  A    between atoms: _441  and  _443
REMARK  173  A    between atoms: _443  and  _444
REMARK  174  A    between atoms: _443  and  _446
REMARK  175  A    between atoms: _449  and  _451
REMARK  176  A    between atoms: _451  and  _452
REMARK  177  A    between atoms: _451  and  _454
REMARK  178  A    between atoms: _454  and  _455
REMARK  179  A    between atoms: _457  and  _459
REMARK  180  A    between atoms: _459  and  _460
REMARK  181  A    between atoms: _459  and  _462
REMARK  182  A    between atoms: _462  and  _463
REMARK  183  A    between atoms: _468  and  _469
REMARK  184  A    between atoms: _471  and  _473
REMARK  185  A    between atoms: _473  and  _474
REMARK  186  A    between atoms: _473  and  _476
REMARK  187  A    between atoms: _476  and  _477
REMARK  188  A    between atoms: _482  and  _483
REMARK  189  A    between atoms: _485  and  _487
REMARK  190  A    between atoms: _487  and  _488
REMARK  191  A    between atoms: _487  and  _490
REMARK  192  A    between atoms: _490  and  _491
REMARK  193  A    between atoms: _494  and  _496
REMARK  194  A    between atoms: _496  and  _497
REMARK  195  A    between atoms: _496  and  _499
REMARK  196  A    between atoms: _503  and  _504
REMARK  197  A    between atoms: _509  and  _511
REMARK  198  A    between atoms: _511  and  _512
REMARK  199  A    between atoms: _511  and  _514
REMARK  200  A    between atoms: _514  and  _515
REMARK  201  A    between atoms: _520  and  _521
REMARK  202  A    between atoms: _523  and  _525
REMARK  203  A    between atoms: _525  and  _526
REMARK  204  A    between atoms: _525  and  _528
REMARK  205  A    between atoms: _528  and  _529
REMARK  206  A    between atoms: _534  and  _535
REMARK  207  A    between atoms: _537  and  _539
REMARK  208  A    between atoms: _539  and  _540
REMARK  209  A    between atoms: _539  and  _542
REMARK  210  A    between atoms: _542  and  _543
REMARK  211  A    between atoms: _545  and  _547
REMARK  212  A    between atoms: _547  and  _548
REMARK  213  A    between atoms: _547  and  _550
REMARK  214  A    between atoms: _550  and  _551
REMARK  215  A    between atoms: _554  and  _556
REMARK  216  A    between atoms: _556  and  _557
REMARK  217  A    between atoms: _556  and  _559
REMARK  218  A    between atoms: _559  and  _560
REMARK  219  A    between atoms: _565  and  _566
REMARK  220  A    between atoms: _568  and  _570
REMARK  221  A    between atoms: _570  and  _571
REMARK  222  A    between atoms: _570  and  _573
REMARK  223  A    between atoms: _573  and  _574
REMARK  224  A    between atoms: _579  and  _580
REMARK  225  A    between atoms: _582  and  _584
REMARK  226  A    between atoms: _584  and  _585
REMARK  227  A    between atoms: _587  and  _589
REMARK  228  A    between atoms: _589  and  _590
REMARK  229  A    between atoms: _589  and  _592
REMARK  230  A    between atoms: _592  and  _593
REMARK  231  A    between atoms: _595  and  _597
REMARK  232  A    between atoms: _597  and  _598
REMARK  233  A    between atoms: _597  and  _600
REMARK  234  A    between atoms: _600  and  _601
REMARK  235  A    between atoms: _606  and  _608
REMARK  236  A    between atoms: _608  and  _609
REMARK  237  A    between atoms: _608  and  _611
REMARK  238  A    between atoms: _611  and  _612
REMARK  239  A    between atoms: _617  and  _618
REMARK                            x       y       z     vdW  Elec       q    Type
REMARK                         _______ _______ _______ _____ _____    ______ ____
ROOT
ATOM      1  O   HOH     1       5.440 -13.976   0.744  0.00  0.00    +0.000 OA
ENDROOT
TORSDOF 0
REMARK  Name = ../refined-set-2016/2qbw/2qbw_pocket.pdb
REMARK  239 active torsions:
REMARK  status: ('A' for Active; 'I' for Inactive)
REMARK    1  A    between atoms: _1  and  _5
REMARK    2  A    between atoms: _5  and  _6
REMARK    3  A    between atoms: _5  and  _8
REMARK    4  A    between atoms: _8  and  _9
REMARK    5  A    between atoms: _12  and  _13
REMARK    6  A    between atoms: _18  and  _20
REMARK    7  A    between atoms: _20  and  _21
REMARK    8  A    between atoms: _20  and  _23
REMARK    9  A    between atoms: _23  and  _24
REMARK   10  A    between atoms: _24  and  _25
REMARK   11  A    between atoms: _28  and  _30
REMARK   12  A    between atoms: _30  and  _31
REMARK   13  A    between atoms: _30  and  _33
REMARK   14  A    between atoms: _33  and  _34
REMARK   15  A    between atoms: _37  and  _39
REMARK   16  A    between atoms: _39  and  _40
REMARK   17  A    between atoms: _42  and  _44
REMARK   18  A    between atoms: _44  and  _45
REMARK   19  A    between atoms: _44  and  _47
REMARK   20  A    between atoms: _47  and  _48
REMARK   21  A    between atoms: _54  and  _56
REMARK   22  A    between atoms: _56  and  _57
REMARK   23  A    between atoms: _56  and  _59
REMARK   24  A    between atoms: _59  and  _60
REMARK   25  A    between atoms: _62  and  _64
REMARK   26  A    between atoms: _64  and  _65
REMARK   27  A    between atoms: _64  and  _67
REMARK   28  A    between atoms: _67  and  _68
REMARK   29  A    between atoms: _71  and  _73
REMARK   30  A    between atoms: _73  and  _74
REMARK   31  A    between atoms: _73  and  _76
REMARK   32  A    between atoms: _76  and  _77
REMARK   33  A    between atoms: _79  and  _81
REMARK   34  A    between atoms: _81  and  _82
REMARK   35  A    between atoms: _84  and  _86
REMARK   36  A    between atoms: _86  and  _87
REMARK   37  A    between atoms: _89  and  _91
REMARK   38  A    between atoms: _91  and  _92
REMARK   39  A    between atoms: _94  and  _96
REMARK   40  A    between atoms: _96  and  _97
REMARK   41  A    between atoms: _96  and  _99
REMARK   42  A    between atoms: _99  and  _100
REMARK   43  A    between atoms: _100  and  _101
REMARK   44  A    between atoms: _101  and  _102
REMARK   45  A    between atoms: _111  and  _113
REMARK   46  A    between atoms: _113  and  _114
REMARK   47  A    between atoms: _116  and  _118
REMARK   48  A    between atoms: _118  and  _119
REMARK   49  A    between atoms: _118  and  _121
REMARK   50  A    between atoms: _121  and  _122
REMARK   51  A    between atoms: _128  and  _129
REMARK   52  A    between atoms: _134  and  _136
REMARK   53  A    between atoms: _136  and  _137
REMARK   54  A    between atoms: _136  and  _139
REMARK   55  A    between atoms: _139  and  _140
REMARK   56  A    between atoms: _146  and  _148
REMARK   57  A    between atoms: _148  and  _149
REMARK   58  A    between atoms: _148  and  _151
REMARK   59  A    between atoms: _151  and  _152
REMARK   60  A    between atoms: _155  and  _157
REMARK   61  A    between atoms: _157  and  _158
REMARK   62  A    between atoms: _157  and  _160
REMARK   63  A    between atoms: _160  and  _161
REMARK   64  A    between atoms: _167  and  _169
REMARK   65  A    between atoms: _169  and  _170
REMARK   66  A    between atoms: _169  and  _172
REMARK   67  A    between atoms: _175  and  _177
REMARK   68  A    between atoms: _177  and  _178
REMARK   69  A    between atoms: _177  and  _180
REMARK   70  A    between atoms: _180  and  _181
REMARK   71  A    between atoms: _184  and  _186
REMARK   72  A    between atoms: _186  and  _187
REMARK   73  A    between atoms: _186  and  _189
REMARK   74  A    between atoms: _189  and  _190
REMARK   75  A    between atoms: _190  and  _191
REMARK   76  A    between atoms: _191  and  _192
REMARK   77  A    between atoms: _201  and  _203
REMARK   78  A    between atoms: _203  and  _204
REMARK   79  A    between atoms: _203  and  _206
REMARK   80  A    between atoms: _209  and  _211
REMARK   81  A    between atoms: _211  and  _212
REMARK   82  A    between atoms: _211  and  _214
REMARK   83  A    between atoms: _214  and  _215
REMARK   84  A    between atoms: _215  and  _216
REMARK   85  A    between atoms: _222  and  _223
REMARK   86  A    between atoms: _229  and  _230
REMARK   87  A    between atoms: _235  and  _237
REMARK   88  A    between atoms: _237  and  _238
REMARK   89  A    between atoms: _241  and  _243
REMARK   90  A    between atoms: _243  and  _244
REMARK   91  A    between atoms: _243  and  _246
REMARK   92  A    between atoms: _246  and  _247
REMARK   93  A    between atoms: _250  and  _252
REMARK   94  A    between atoms: _252  and  _253
REMARK   95  A    between atoms: _252  and  _255
REMARK   96  A    between atoms: _255  and  _256
REMARK   97  A    between atoms: _259  and  _261
REMARK   98  A    between atoms: _261  and  _262
REMARK   99  A    between atoms: _261  and  _264
REMARK  100  A    between atoms: _264  and  _265
REMARK  101  A    between atoms: _271  and  _273
REMARK  102  A    between atoms: _273  and  _274
REMARK  103  A    between atoms: _273  and  _276
REMARK  104  A    between atoms: _276  and  _277
REMARK  105  A    between atoms: _282  and  _284
REMARK  106  A    between atoms: _284  and  _285
REMARK  107  A    between atoms: _287  and  _289
REMARK  108  A    between atoms: _289  and  _290
REMARK  109  A    between atoms: _293  and  _295
REMARK  110  A    between atoms: _295  and  _296
REMARK  111  A    between atoms: _295  and  _298
REMARK  112  A    between atoms: _301  and  _303
REMARK  113  A    between atoms: _303  and  _304
REMARK  114  A    between atoms: _303  and  _306
REMARK  115  A    between atoms: _306  and  _307
REMARK  116  A    between atoms: _309  and  _311
REMARK  117  A    between atoms: _311  and  _312
REMARK  118  A    between atoms: _311  and  _314
REMARK  119  A    between atoms: _314  and  _315
REMARK  120  A    between atoms: _318  and  _320
REMARK  121  A    between atoms: _320  and  _321
REMARK  122  A    between atoms: _320  and  _323
REMARK  123  A    between atoms: _323  and  _324
REMARK  124  A    between atoms: _327  and  _329
REMARK  125  A    between atoms: _329  and  _330
REMARK  126  A    between atoms: _329  and  _332
REMARK  127  A    between atoms: _332  and  _333
REMARK  128  A    between atoms: _333  and  _334
REMARK  129  A    between atoms: _334  and  _335
REMARK  130  A    between atoms: _335  and  _336
REMARK  131  A    between atoms: _340  and  _342
REMARK  132  A    between atoms: _342  and  _343
REMARK  133  A    between atoms: _342  and  _345
REMARK  134  A    between atoms: _345  and  _346
REMARK  135  A    between atoms: _349  and  _351
REMARK  136  A    between atoms: _351  and  _352
REMARK  137  A    between atoms: _351  and  _354
REMARK  138  A    between atoms: _354  and  _355
REMARK  139  A    between atoms: _361  and  _363
REMARK  140  A    between atoms: _363  and  _364
REMARK  141  A    between atoms: _363  and  _366
REMARK  142  A    between atoms: _369  and  _371
REMARK  143  A    between atoms: _371  and  _372
REMARK  144  A    between atoms: _371  and  _374
REMARK  145  A    between atoms: _374  and  _375
REMARK  146  A    between atoms: _378  and  _380
REMARK  147  A    between atoms: _380  and  _381
REMARK  148  A    between atoms: _380  and  _383
REMARK  149  A    between atoms: _386  and  _388
REMARK  150  A    between atoms: _388  and  _389
REMARK  151  A    between atoms: _388  and  _391
REMARK  152  A    between atoms: _391  and  _392
REMARK  153  A    between atoms: _392  and  _393
REMARK  154  A    between atoms: _393  and  _394
REMARK  155  A    between atoms: _394  and  _395
REMARK  156  A    between atoms: _399  and  _401
REMARK  157  A    between atoms: _401  and  _402
REMARK  158  A    between atoms: _401  and  _404
REMARK  159  A    between atoms: _404  and  _405
REMARK  160  A    between atoms: _408  and  _410
REMARK  161  A    between atoms: _410  and  _411
REMARK  162  A    between atoms: _410  and  _413
REMARK  163  A    between atoms: _413  and  _414
REMARK  164  A    between atoms: _419  and  _420
REMARK  165  A    between atoms: _422  and  _424
REMARK  166  A    between atoms: _424  and  _425
REMARK  167  A    between atoms: _424  and  _427
REMARK  168  A    between atoms: _427  and  _428
REMARK  169  A    between atoms: _433  and  _434
REMARK  170  A    between atoms: _436  and  _438
REMARK  171  A    between atoms: _438  and  _439
REMARK  172  A    between atoms: _441  and  _443
REMARK  173  A    between atoms: _443  and  _444
REMARK  174  A    between atoms: _443  and  _446
REMARK  175  A    between atoms: _449  and  _451
REMARK  176  A    between atoms: _451  and  _452
REMARK  177  A    between atoms: _451  and  _454
REMARK  178  A    between atoms: _454  and  _455
REMARK  179  A    between atoms: _457  and  _459
REMARK  180  A    between atoms: _459  and  _460
REMARK  181  A    between atoms: _459  and  _462
REMARK  182  A    between atoms: _462  and  _463
REMARK  183  A    between atoms: _468  and  _469
REMARK  184  A    between atoms: _471  and  _473
REMARK  185  A    between atoms: _473  and  _474
REMARK  186  A    between atoms: _473  and  _476
REMARK  187  A    between atoms: _476  and  _477
REMARK  188  A    between atoms: _482  and  _483
REMARK  189  A    between atoms: _485  and  _487
REMARK  190  A    between atoms: _487  and  _488
REMARK  191  A    between atoms: _487  and  _490
REMARK  192  A    between atoms: _490  and  _491
REMARK  193  A    between atoms: _494  and  _496
REMARK  194  A    between atoms: _496  and  _497
REMARK  195  A    between atoms: _496  and  _499
REMARK  196  A    between atoms: _503  and  _504
REMARK  197  A    between atoms: _509  and  _511
REMARK  198  A    between atoms: _511  and  _512
REMARK  199  A    between atoms: _511  and  _514
REMARK  200  A    between atoms: _514  and  _515
REMARK  201  A    between atoms: _520  and  _521
REMARK  202  A    between atoms: _523  and  _525
REMARK  203  A    between atoms: _525  and  _526
REMARK  204  A    between atoms: _525  and  _528
REMARK  205  A    between atoms: _528  and  _529
REMARK  206  A    between atoms: _534  and  _535
REMARK  207  A    between atoms: _537  and  _539
REMARK  208  A    between atoms: _539  and  _540
REMARK  209  A    between atoms: _539  and  _542
REMARK  210  A    between atoms: _542  and  _543
REMARK  211  A    between atoms: _545  and  _547
REMARK  212  A    between atoms: _547  and  _548
REMARK  213  A    between atoms: _547  and  _550
REMARK  214  A    between atoms: _550  and  _551
REMARK  215  A    between atoms: _554  and  _556
REMARK  216  A    between atoms: _556  and  _557
REMARK  217  A    between atoms: _556  and  _559
REMARK  218  A    between atoms: _559  and  _560
REMARK  219  A    between atoms: _565  and  _566
REMARK  220  A    between atoms: _568  and  _570
REMARK  221  A    between atoms: _570  and  _571
REMARK  222  A    between atoms: _570  and  _573
REMARK  223  A    between atoms: _573  and  _574
REMARK  224  A    between atoms: _579  and  _580
REMARK  225  A    between atoms: _582  and  _584
REMARK  226  A    between atoms: _584  and  _585
REMARK  227  A    between atoms: _587  and  _589
REMARK  228  A    between atoms: _589  and  _590
REMARK  229  A    between atoms: _589  and  _592
REMARK  230  A    between atoms: _592  and  _593
REMARK  231  A    between atoms: _595  and  _597
REMARK  232  A    between atoms: _597  and  _598
REMARK  233  A    between atoms: _597  and  _600
REMARK  234  A    between atoms: _600  and  _601
REMARK  235  A    between atoms: _606  and  _608
REMARK  236  A    between atoms: _608  and  _609
REMARK  237  A    between atoms: _608  and  _611
REMARK  238  A    between atoms: _611  and  _612
REMARK  239  A    between atoms: _617  and  _618
REMARK                            x       y       z     vdW  Elec       q    Type
REMARK                         _______ _______ _______ _____ _____    ______ ____
ROOT
ATOM      1  O   HOH     1      10.280  -5.663  -3.091  0.00  0.00    +0.000 OA
ENDROOT
TORSDOF 0
REMARK  Name = ../refined-set-2016/2qbw/2qbw_pocket.pdb
REMARK  239 active torsions:
REMARK  status: ('A' for Active; 'I' for Inactive)
REMARK    1  A    between atoms: _1  and  _5
REMARK    2  A    between atoms: _5  and  _6
REMARK    3  A    between atoms: _5  and  _8
REMARK    4  A    between atoms: _8  and  _9
REMARK    5  A    between atoms: _12  and  _13
REMARK    6  A    between atoms: _18  and  _20
REMARK    7  A    between atoms: _20  and  _21
REMARK    8  A    between atoms: _20  and  _23
REMARK    9  A    between atoms: _23  and  _24
REMARK   10  A    between atoms: _24  and  _25
REMARK   11  A    between atoms: _28  and  _30
REMARK   12  A    between atoms: _30  and  _31
REMARK   13  A    between atoms: _30  and  _33
REMARK   14  A    between atoms: _33  and  _34
REMARK   15  A    between atoms: _37  and  _39
REMARK   16  A    between atoms: _39  and  _40
REMARK   17  A    between atoms: _42  and  _44
REMARK   18  A    between atoms: _44  and  _45
REMARK   19  A    between atoms: _44  and  _47
REMARK   20  A    between atoms: _47  and  _48
REMARK   21  A    between atoms: _54  and  _56
REMARK   22  A    between atoms: _56  and  _57
REMARK   23  A    between atoms: _56  and  _59
REMARK   24  A    between atoms: _59  and  _60
REMARK   25  A    between atoms: _62  and  _64
REMARK   26  A    between atoms: _64  and  _65
REMARK   27  A    between atoms: _64  and  _67
REMARK   28  A    between atoms: _67  and  _68
REMARK   29  A    between atoms: _71  and  _73
REMARK   30  A    between atoms: _73  and  _74
REMARK   31  A    between atoms: _73  and  _76
REMARK   32  A    between atoms: _76  and  _77
REMARK   33  A    between atoms: _79  and  _81
REMARK   34  A    between atoms: _81  and  _82
REMARK   35  A    between atoms: _84  and  _86
REMARK   36  A    between atoms: _86  and  _87
REMARK   37  A    between atoms: _89  and  _91
REMARK   38  A    between atoms: _91  and  _92
REMARK   39  A    between atoms: _94  and  _96
REMARK   40  A    between atoms: _96  and  _97
REMARK   41  A    between atoms: _96  and  _99
REMARK   42  A    between atoms: _99  and  _100
REMARK   43  A    between atoms: _100  and  _101
REMARK   44  A    between atoms: _101  and  _102
REMARK   45  A    between atoms: _111  and  _113
REMARK   46  A    between atoms: _113  and  _114
REMARK   47  A    between atoms: _116  and  _118
REMARK   48  A    between atoms: _118  and  _119
REMARK   49  A    between atoms: _118  and  _121
REMARK   50  A    between atoms: _121  and  _122
REMARK   51  A    between atoms: _128  and  _129
REMARK   52  A    between atoms: _134  and  _136
REMARK   53  A    between atoms: _136  and  _137
REMARK   54  A    between atoms: _136  and  _139
REMARK   55  A    between atoms: _139  and  _140
REMARK   56  A    between atoms: _146  and  _148
REMARK   57  A    between atoms: _148  and  _149
REMARK   58  A    between atoms: _148  and  _151
REMARK   59  A    between atoms: _151  and  _152
REMARK   60  A    between atoms: _155  and  _157
REMARK   61  A    between atoms: _157  and  _158
REMARK   62  A    between atoms: _157  and  _160
REMARK   63  A    between atoms: _160  and  _161
REMARK   64  A    between atoms: _167  and  _169
REMARK   65  A    between atoms: _169  and  _170
REMARK   66  A    between atoms: _169  and  _172
REMARK   67  A    between atoms: _175  and  _177
REMARK   68  A    between atoms: _177  and  _178
REMARK   69  A    between atoms: _177  and  _180
REMARK   70  A    between atoms: _180  and  _181
REMARK   71  A    between atoms: _184  and  _186
REMARK   72  A    between atoms: _186  and  _187
REMARK   73  A    between atoms: _186  and  _189
REMARK   74  A    between atoms: _189  and  _190
REMARK   75  A    between atoms: _190  and  _191
REMARK   76  A    between atoms: _191  and  _192
REMARK   77  A    between atoms: _201  and  _203
REMARK   78  A    between atoms: _203  and  _204
REMARK   79  A    between atoms: _203  and  _206
REMARK   80  A    between atoms: _209  and  _211
REMARK   81  A    between atoms: _211  and  _212
REMARK   82  A    between atoms: _211  and  _214
REMARK   83  A    between atoms: _214  and  _215
REMARK   84  A    between atoms: _215  and  _216
REMARK   85  A    between atoms: _222  and  _223
REMARK   86  A    between atoms: _229  and  _230
REMARK   87  A    between atoms: _235  and  _237
REMARK   88  A    between atoms: _237  and  _238
REMARK   89  A    between atoms: _241  and  _243
REMARK   90  A    between atoms: _243  and  _244
REMARK   91  A    between atoms: _243  and  _246
REMARK   92  A    between atoms: _246  and  _247
REMARK   93  A    between atoms: _250  and  _252
REMARK   94  A    between atoms: _252  and  _253
REMARK   95  A    between atoms: _252  and  _255
REMARK   96  A    between atoms: _255  and  _256
REMARK   97  A    between atoms: _259  and  _261
REMARK   98  A    between atoms: _261  and  _262
REMARK   99  A    between atoms: _261  and  _264
REMARK  100  A    between atoms: _264  and  _265
REMARK  101  A    between atoms: _271  and  _273
REMARK  102  A    between atoms: _273  and  _274
REMARK  103  A    between atoms: _273  and  _276
REMARK  104  A    between atoms: _276  and  _277
REMARK  105  A    between atoms: _282  and  _284
REMARK  106  A    between atoms: _284  and  _285
REMARK  107  A    between atoms: _287  and  _289
REMARK  108  A    between atoms: _289  and  _290
REMARK  109  A    between atoms: _293  and  _295
REMARK  110  A    between atoms: _295  and  _296
REMARK  111  A    between atoms: _295  and  _298
REMARK  112  A    between atoms: _301  and  _303
REMARK  113  A    between atoms: _303  and  _304
REMARK  114  A    between atoms: _303  and  _306
REMARK  115  A    between atoms: _306  and  _307
REMARK  116  A    between atoms: _309  and  _311
REMARK  117  A    between atoms: _311  and  _312
REMARK  118  A    between atoms: _311  and  _314
REMARK  119  A    between atoms: _314  and  _315
REMARK  120  A    between atoms: _318  and  _320
REMARK  121  A    between atoms: _320  and  _321
REMARK  122  A    between atoms: _320  and  _323
REMARK  123  A    between atoms: _323  and  _324
REMARK  124  A    between atoms: _327  and  _329
REMARK  125  A    between atoms: _329  and  _330
REMARK  126  A    between atoms: _329  and  _332
REMARK  127  A    between atoms: _332  and  _333
REMARK  128  A    between atoms: _333  and  _334
REMARK  129  A    between atoms: _334  and  _335
REMARK  130  A    between atoms: _335  and  _336
REMARK  131  A    between atoms: _340  and  _342
REMARK  132  A    between atoms: _342  and  _343
REMARK  133  A    between atoms: _342  and  _345
REMARK  134  A    between atoms: _345  and  _346
REMARK  135  A    between atoms: _349  and  _351
REMARK  136  A    between atoms: _351  and  _352
REMARK  137  A    between atoms: _351  and  _354
REMARK  138  A    between atoms: _354  and  _355
REMARK  139  A    between atoms: _361  and  _363
REMARK  140  A    between atoms: _363  and  _364
REMARK  141  A    between atoms: _363  and  _366
REMARK  142  A    between atoms: _369  and  _371
REMARK  143  A    between atoms: _371  and  _372
REMARK  144  A    between atoms: _371  and  _374
REMARK  145  A    between atoms: _374  and  _375
REMARK  146  A    between atoms: _378  and  _380
REMARK  147  A    between atoms: _380  and  _381
REMARK  148  A    between atoms: _380  and  _383
REMARK  149  A    between atoms: _386  and  _388
REMARK  150  A    between atoms: _388  and  _389
REMARK  151  A    between atoms: _388  and  _391
REMARK  152  A    between atoms: _391  and  _392
REMARK  153  A    between atoms: _392  and  _393
REMARK  154  A    between atoms: _393  and  _394
REMARK  155  A    between atoms: _394  and  _395
REMARK  156  A    between atoms: _399  and  _401
REMARK  157  A    between atoms: _401  and  _402
REMARK  158  A    between atoms: _401  and  _404
REMARK  159  A    between atoms: _404  and  _405
REMARK  160  A    between atoms: _408  and  _410
REMARK  161  A    between atoms: _410  and  _411
REMARK  162  A    between atoms: _410  and  _413
REMARK  163  A    between atoms: _413  and  _414
REMARK  164  A    between atoms: _419  and  _420
REMARK  165  A    between atoms: _422  and  _424
REMARK  166  A    between atoms: _424  and  _425
REMARK  167  A    between atoms: _424  and  _427
REMARK  168  A    between atoms: _427  and  _428
REMARK  169  A    between atoms: _433  and  _434
REMARK  170  A    between atoms: _436  and  _438
REMARK  171  A    between atoms: _438  and  _439
REMARK  172  A    between atoms: _441  and  _443
REMARK  173  A    between atoms: _443  and  _444
REMARK  174  A    between atoms: _443  and  _446
REMARK  175  A    between atoms: _449  and  _451
REMARK  176  A    between atoms: _451  and  _452
REMARK  177  A    between atoms: _451  and  _454
REMARK  178  A    between atoms: _454  and  _455
REMARK  179  A    between atoms: _457  and  _459
REMARK  180  A    between atoms: _459  and  _460
REMARK  181  A    between atoms: _459  and  _462
REMARK  182  A    between atoms: _462  and  _463
REMARK  183  A    between atoms: _468  and  _469
REMARK  184  A    between atoms: _471  and  _473
REMARK  185  A    between atoms: _473  and  _474
REMARK  186  A    between atoms: _473  and  _476
REMARK  187  A    between atoms: _476  and  _477
REMARK  188  A    between atoms: _482  and  _483
REMARK  189  A    between atoms: _485  and  _487
REMARK  190  A    between atoms: _487  and  _488
REMARK  191  A    between atoms: _487  and  _490
REMARK  192  A    between atoms: _490  and  _491
REMARK  193  A    between atoms: _494  and  _496
REMARK  194  A    between atoms: _496  and  _497
REMARK  195  A    between atoms: _496  and  _499
REMARK  196  A    between atoms: _503  and  _504
REMARK  197  A    between atoms: _509  and  _511
REMARK  198  A    between atoms: _511  and  _512
REMARK  199  A    between atoms: _511  and  _514
REMARK  200  A    between atoms: _514  and  _515
REMARK  201  A    between atoms: _520  and  _521
REMARK  202  A    between atoms: _523  and  _525
REMARK  203  A    between atoms: _525  and  _526
REMARK  204  A    between atoms: _525  and  _528
REMARK  205  A    between atoms: _528  and  _529
REMARK  206  A    between atoms: _534  and  _535
REMARK  207  A    between atoms: _537  and  _539
REMARK  208  A    between atoms: _539  and  _540
REMARK  209  A    between atoms: _539  and  _542
REMARK  210  A    between atoms: _542  and  _543
REMARK  211  A    between atoms: _545  and  _547
REMARK  212  A    between atoms: _547  and  _548
REMARK  213  A    between atoms: _547  and  _550
REMARK  214  A    between atoms: _550  and  _551
REMARK  215  A    between atoms: _554  and  _556
REMARK  216  A    between atoms: _556  and  _557
REMARK  217  A    between atoms: _556  and  _559
REMARK  218  A    between atoms: _559  and  _560
REMARK  219  A    between atoms: _565  and  _566
REMARK  220  A    between atoms: _568  and  _570
REMARK  221  A    between atoms: _570  and  _571
REMARK  222  A    between atoms: _570  and  _573
REMARK  223  A    between atoms: _573  and  _574
REMARK  224  A    between atoms: _579  and  _580
REMARK  225  A    between atoms: _582  and  _584
REMARK  226  A    between atoms: _584  and  _585
REMARK  227  A    between atoms: _587  and  _589
REMARK  228  A    between atoms: _589  and  _590
REMARK  229  A    between atoms: _589  and  _592
REMARK  230  A    between atoms: _592  and  _593
REMARK  231  A    between atoms: _595  and  _597
REMARK  232  A    between atoms: _597  and  _598
REMARK  233  A    between atoms: _597  and  _600
REMARK  234  A    between atoms: _600  and  _601
REMARK  235  A    between atoms: _606  and  _608
REMARK  236  A    between atoms: _608  and  _609
REMARK  237  A    between atoms: _608  and  _611
REMARK  238  A    between atoms: _611  and  _612
REMARK  239  A    between atoms: _617  and  _618
REMARK                            x       y       z     vdW  Elec       q    Type
REMARK                         _______ _______ _______ _____ _____    ______ ____
ROOT
ATOM      1  O   HOH     1      -1.639 -15.087 -12.377  0.00  0.00    +0.000 OA
ENDROOT
TORSDOF 0
REMARK  Name = ../refined-set-2016/2qbw/2qbw_pocket.pdb
REMARK  239 active torsions:
REMARK  status: ('A' for Active; 'I' for Inactive)
REMARK    1  A    between atoms: _1  and  _5
REMARK    2  A    between atoms: _5  and  _6
REMARK    3  A    between atoms: _5  and  _8
REMARK    4  A    between atoms: _8  and  _9
REMARK    5  A    between atoms: _12  and  _13
REMARK    6  A    between atoms: _18  and  _20
REMARK    7  A    between atoms: _20  and  _21
REMARK    8  A    between atoms: _20  and  _23
REMARK    9  A    between atoms: _23  and  _24
REMARK   10  A    between atoms: _24  and  _25
REMARK   11  A    between atoms: _28  and  _30
REMARK   12  A    between atoms: _30  and  _31
REMARK   13  A    between atoms: _30  and  _33
REMARK   14  A    between atoms: _33  and  _34
REMARK   15  A    between atoms: _37  and  _39
REMARK   16  A    between atoms: _39  and  _40
REMARK   17  A    between atoms: _42  and  _44
REMARK   18  A    between atoms: _44  and  _45
REMARK   19  A    between atoms: _44  and  _47
REMARK   20  A    between atoms: _47  and  _48
REMARK   21  A    between atoms: _54  and  _56
REMARK   22  A    between atoms: _56  and  _57
REMARK   23  A    between atoms: _56  and  _59
REMARK   24  A    between atoms: _59  and  _60
REMARK   25  A    between atoms: _62  and  _64
REMARK   26  A    between atoms: _64  and  _65
REMARK   27  A    between atoms: _64  and  _67
REMARK   28  A    between atoms: _67  and  _68
REMARK   29  A    between atoms: _71  and  _73
REMARK   30  A    between atoms: _73  and  _74
REMARK   31  A    between atoms: _73  and  _76
REMARK   32  A    between atoms: _76  and  _77
REMARK   33  A    between atoms: _79  and  _81
REMARK   34  A    between atoms: _81  and  _82
REMARK   35  A    between atoms: _84  and  _86
REMARK   36  A    between atoms: _86  and  _87
REMARK   37  A    between atoms: _89  and  _91
REMARK   38  A    between atoms: _91  and  _92
REMARK   39  A    between atoms: _94  and  _96
REMARK   40  A    between atoms: _96  and  _97
REMARK   41  A    between atoms: _96  and  _99
REMARK   42  A    between atoms: _99  and  _100
REMARK   43  A    between atoms: _100  and  _101
REMARK   44  A    between atoms: _101  and  _102
REMARK   45  A    between atoms: _111  and  _113
REMARK   46  A    between atoms: _113  and  _114
REMARK   47  A    between atoms: _116  and  _118
REMARK   48  A    between atoms: _118  and  _119
REMARK   49  A    between atoms: _118  and  _121
REMARK   50  A    between atoms: _121  and  _122
REMARK   51  A    between atoms: _128  and  _129
REMARK   52  A    between atoms: _134  and  _136
REMARK   53  A    between atoms: _136  and  _137
REMARK   54  A    between atoms: _136  and  _139
REMARK   55  A    between atoms: _139  and  _140
REMARK   56  A    between atoms: _146  and  _148
REMARK   57  A    between atoms: _148  and  _149
REMARK   58  A    between atoms: _148  and  _151
REMARK   59  A    between atoms: _151  and  _152
REMARK   60  A    between atoms: _155  and  _157
REMARK   61  A    between atoms: _157  and  _158
REMARK   62  A    between atoms: _157  and  _160
REMARK   63  A    between atoms: _160  and  _161
REMARK   64  A    between atoms: _167  and  _169
REMARK   65  A    between atoms: _169  and  _170
REMARK   66  A    between atoms: _169  and  _172
REMARK   67  A    between atoms: _175  and  _177
REMARK   68  A    between atoms: _177  and  _178
REMARK   69  A    between atoms: _177  and  _180
REMARK   70  A    between atoms: _180  and  _181
REMARK   71  A    between atoms: _184  and  _186
REMARK   72  A    between atoms: _186  and  _187
REMARK   73  A    between atoms: _186  and  _189
REMARK   74  A    between atoms: _189  and  _190
REMARK   75  A    between atoms: _190  and  _191
REMARK   76  A    between atoms: _191  and  _192
REMARK   77  A    between atoms: _201  and  _203
REMARK   78  A    between atoms: _203  and  _204
REMARK   79  A    between atoms: _203  and  _206
REMARK   80  A    between atoms: _209  and  _211
REMARK   81  A    between atoms: _211  and  _212
REMARK   82  A    between atoms: _211  and  _214
REMARK   83  A    between atoms: _214  and  _215
REMARK   84  A    between atoms: _215  and  _216
REMARK   85  A    between atoms: _222  and  _223
REMARK   86  A    between atoms: _229  and  _230
REMARK   87  A    between atoms: _235  and  _237
REMARK   88  A    between atoms: _237  and  _238
REMARK   89  A    between atoms: _241  and  _243
REMARK   90  A    between atoms: _243  and  _244
REMARK   91  A    between atoms: _243  and  _246
REMARK   92  A    between atoms: _246  and  _247
REMARK   93  A    between atoms: _250  and  _252
REMARK   94  A    between atoms: _252  and  _253
REMARK   95  A    between atoms: _252  and  _255
REMARK   96  A    between atoms: _255  and  _256
REMARK   97  A    between atoms: _259  and  _261
REMARK   98  A    between atoms: _261  and  _262
REMARK   99  A    between atoms: _261  and  _264
REMARK  100  A    between atoms: _264  and  _265
REMARK  101  A    between atoms: _271  and  _273
REMARK  102  A    between atoms: _273  and  _274
REMARK  103  A    between atoms: _273  and  _276
REMARK  104  A    between atoms: _276  and  _277
REMARK  105  A    between atoms: _282  and  _284
REMARK  106  A    between atoms: _284  and  _285
REMARK  107  A    between atoms: _287  and  _289
REMARK  108  A    between atoms: _289  and  _290
REMARK  109  A    between atoms: _293  and  _295
REMARK  110  A    between atoms: _295  and  _296
REMARK  111  A    between atoms: _295  and  _298
REMARK  112  A    between atoms: _301  and  _303
REMARK  113  A    between atoms: _303  and  _304
REMARK  114  A    between atoms: _303  and  _306
REMARK  115  A    between atoms: _306  and  _307
REMARK  116  A    between atoms: _309  and  _311
REMARK  117  A    between atoms: _311  and  _312
REMARK  118  A    between atoms: _311  and  _314
REMARK  119  A    between atoms: _314  and  _315
REMARK  120  A    between atoms: _318  and  _320
REMARK  121  A    between atoms: _320  and  _321
REMARK  122  A    between atoms: _320  and  _323
REMARK  123  A    between atoms: _323  and  _324
REMARK  124  A    between atoms: _327  and  _329
REMARK  125  A    between atoms: _329  and  _330
REMARK  126  A    between atoms: _329  and  _332
REMARK  127  A    between atoms: _332  and  _333
REMARK  128  A    between atoms: _333  and  _334
REMARK  129  A    between atoms: _334  and  _335
REMARK  130  A    between atoms: _335  and  _336
REMARK  131  A    between atoms: _340  and  _342
REMARK  132  A    between atoms: _342  and  _343
REMARK  133  A    between atoms: _342  and  _345
REMARK  134  A    between atoms: _345  and  _346
REMARK  135  A    between atoms: _349  and  _351
REMARK  136  A    between atoms: _351  and  _352
REMARK  137  A    between atoms: _351  and  _354
REMARK  138  A    between atoms: _354  and  _355
REMARK  139  A    between atoms: _361  and  _363
REMARK  140  A    between atoms: _363  and  _364
REMARK  141  A    between atoms: _363  and  _366
REMARK  142  A    between atoms: _369  and  _371
REMARK  143  A    between atoms: _371  and  _372
REMARK  144  A    between atoms: _371  and  _374
REMARK  145  A    between atoms: _374  and  _375
REMARK  146  A    between atoms: _378  and  _380
REMARK  147  A    between atoms: _380  and  _381
REMARK  148  A    between atoms: _380  and  _383
REMARK  149  A    between atoms: _386  and  _388
REMARK  150  A    between atoms: _388  and  _389
REMARK  151  A    between atoms: _388  and  _391
REMARK  152  A    between atoms: _391  and  _392
REMARK  153  A    between atoms: _392  and  _393
REMARK  154  A    between atoms: _393  and  _394
REMARK  155  A    between atoms: _394  and  _395
REMARK  156  A    between atoms: _399  and  _401
REMARK  157  A    between atoms: _401  and  _402
REMARK  158  A    between atoms: _401  and  _404
REMARK  159  A    between atoms: _404  and  _405
REMARK  160  A    between atoms: _408  and  _410
REMARK  161  A    between atoms: _410  and  _411
REMARK  162  A    between atoms: _410  and  _413
REMARK  163  A    between atoms: _413  and  _414
REMARK  164  A    between atoms: _419  and  _420
REMARK  165  A    between atoms: _422  and  _424
REMARK  166  A    between atoms: _424  and  _425
REMARK  167  A    between atoms: _424  and  _427
REMARK  168  A    between atoms: _427  and  _428
REMARK  169  A    between atoms: _433  and  _434
REMARK  170  A    between atoms: _436  and  _438
REMARK  171  A    between atoms: _438  and  _439
REMARK  172  A    between atoms: _441  and  _443
REMARK  173  A    between atoms: _443  and  _444
REMARK  174  A    between atoms: _443  and  _446
REMARK  175  A    between atoms: _449  and  _451
REMARK  176  A    between atoms: _451  and  _452
REMARK  177  A    between atoms: _451  and  _454
REMARK  178  A    between atoms: _454  and  _455
REMARK  179  A    between atoms: _457  and  _459
REMARK  180  A    between atoms: _459  and  _460
REMARK  181  A    between atoms: _459  and  _462
REMARK  182  A    between atoms: _462  and  _463
REMARK  183  A    between atoms: _468  and  _469
REMARK  184  A    between atoms: _471  and  _473
REMARK  185  A    between atoms: _473  and  _474
REMARK  186  A    between atoms: _473  and  _476
REMARK  187  A    between atoms: _476  and  _477
REMARK  188  A    between atoms: _482  and  _483
REMARK  189  A    between atoms: _485  and  _487
REMARK  190  A    between atoms: _487  and  _488
REMARK  191  A    between atoms: _487  and  _490
REMARK  192  A    between atoms: _490  and  _491
REMARK  193  A    between atoms: _494  and  _496
REMARK  194  A    between atoms: _496  and  _497
REMARK  195  A    between atoms: _496  and  _499
REMARK  196  A    between atoms: _503  and  _504
REMARK  197  A    between atoms: _509  and  _511
REMARK  198  A    between atoms: _511  and  _512
REMARK  199  A    between atoms: _511  and  _514
REMARK  200  A    between atoms: _514  and  _515
REMARK  201  A    between atoms: _520  and  _521
REMARK  202  A    between atoms: _523  and  _525
REMARK  203  A    between atoms: _525  and  _526
REMARK  204  A    between atoms: _525  and  _528
REMARK  205  A    between atoms: _528  and  _529
REMARK  206  A    between atoms: _534  and  _535
REMARK  207  A    between atoms: _537  and  _539
REMARK  208  A    between atoms: _539  and  _540
REMARK  209  A    between atoms: _539  and  _542
REMARK  210  A    between atoms: _542  and  _543
REMARK  211  A    between atoms: _545  and  _547
REMARK  212  A    between atoms: _547  and  _548
REMARK  213  A    between atoms: _547  and  _550
REMARK  214  A    between atoms: _550  and  _551
REMARK  215  A    between atoms: _554  and  _556
REMARK  216  A    between atoms: _556  and  _557
REMARK  217  A    between atoms: _556  and  _559
REMARK  218  A    between atoms: _559  and  _560
REMARK  219  A    between atoms: _565  and  _566
REMARK  220  A    between atoms: _568  and  _570
REMARK  221  A    between atoms: _570  and  _571
REMARK  222  A    between atoms: _570  and  _573
REMARK  223  A    between atoms: _573  and  _574
REMARK  224  A    between atoms: _579  and  _580
REMARK  225  A    between atoms: _582  and  _584
REMARK  226  A    between atoms: _584  and  _585
REMARK  227  A    between atoms: _587  and  _589
REMARK  228  A    between atoms: _589  and  _590
REMARK  229  A    between atoms: _589  and  _592
REMARK  230  A    between atoms: _592  and  _593
REMARK  231  A    between atoms: _595  and  _597
REMARK  232  A    between atoms: _597  and  _598
REMARK  233  A    between atoms: _597  and  _600
REMARK  234  A    between atoms: _600  and  _601
REMARK  235  A    between atoms: _606  and  _608
REMARK  236  A    between atoms: _608  and  _609
REMARK  237  A    between atoms: _608  and  _611
REMARK  238  A    between atoms: _611  and  _612
REMARK  239  A    between atoms: _617  and  _618
REMARK                            x       y       z     vdW  Elec       q    Type
REMARK                         _______ _______ _______ _____ _____    ______ ____
ROOT
ATOM      1  O   HOH     1      -1.739   3.352  -5.274  0.00  0.00    +0.000 OA
ENDROOT
TORSDOF 0
REMARK  Name = ../refined-set-2016/2qbw/2qbw_pocket.pdb
REMARK  239 active torsions:
REMARK  status: ('A' for Active; 'I' for Inactive)
REMARK    1  A    between atoms: _1  and  _5
REMARK    2  A    between atoms: _5  and  _6
REMARK    3  A    between atoms: _5  and  _8
REMARK    4  A    between atoms: _8  and  _9
REMARK    5  A    between atoms: _12  and  _13
REMARK    6  A    between atoms: _18  and  _20
REMARK    7  A    between atoms: _20  and  _21
REMARK    8  A    between atoms: _20  and  _23
REMARK    9  A    between atoms: _23  and  _24
REMARK   10  A    between atoms: _24  and  _25
REMARK   11  A    between atoms: _28  and  _30
REMARK   12  A    between atoms: _30  and  _31
REMARK   13  A    between atoms: _30  and  _33
REMARK   14  A    between atoms: _33  and  _34
REMARK   15  A    between atoms: _37  and  _39
REMARK   16  A    between atoms: _39  and  _40
REMARK   17  A    between atoms: _42  and  _44
REMARK   18  A    between atoms: _44  and  _45
REMARK   19  A    between atoms: _44  and  _47
REMARK   20  A    between atoms: _47  and  _48
REMARK   21  A    between atoms: _54  and  _56
REMARK   22  A    between atoms: _56  and  _57
REMARK   23  A    between atoms: _56  and  _59
REMARK   24  A    between atoms: _59  and  _60
REMARK   25  A    between atoms: _62  and  _64
REMARK   26  A    between atoms: _64  and  _65
REMARK   27  A    between atoms: _64  and  _67
REMARK   28  A    between atoms: _67  and  _68
REMARK   29  A    between atoms: _71  and  _73
REMARK   30  A    between atoms: _73  and  _74
REMARK   31  A    between atoms: _73  and  _76
REMARK   32  A    between atoms: _76  and  _77
REMARK   33  A    between atoms: _79  and  _81
REMARK   34  A    between atoms: _81  and  _82
REMARK   35  A    between atoms: _84  and  _86
REMARK   36  A    between atoms: _86  and  _87
REMARK   37  A    between atoms: _89  and  _91
REMARK   38  A    between atoms: _91  and  _92
REMARK   39  A    between atoms: _94  and  _96
REMARK   40  A    between atoms: _96  and  _97
REMARK   41  A    between atoms: _96  and  _99
REMARK   42  A    between atoms: _99  and  _100
REMARK   43  A    between atoms: _100  and  _101
REMARK   44  A    between atoms: _101  and  _102
REMARK   45  A    between atoms: _111  and  _113
REMARK   46  A    between atoms: _113  and  _114
REMARK   47  A    between atoms: _116  and  _118
REMARK   48  A    between atoms: _118  and  _119
REMARK   49  A    between atoms: _118  and  _121
REMARK   50  A    between atoms: _121  and  _122
REMARK   51  A    between atoms: _128  and  _129
REMARK   52  A    between atoms: _134  and  _136
REMARK   53  A    between atoms: _136  and  _137
REMARK   54  A    between atoms: _136  and  _139
REMARK   55  A    between atoms: _139  and  _140
REMARK   56  A    between atoms: _146  and  _148
REMARK   57  A    between atoms: _148  and  _149
REMARK   58  A    between atoms: _148  and  _151
REMARK   59  A    between atoms: _151  and  _152
REMARK   60  A    between atoms: _155  and  _157
REMARK   61  A    between atoms: _157  and  _158
REMARK   62  A    between atoms: _157  and  _160
REMARK   63  A    between atoms: _160  and  _161
REMARK   64  A    between atoms: _167  and  _169
REMARK   65  A    between atoms: _169  and  _170
REMARK   66  A    between atoms: _169  and  _172
REMARK   67  A    between atoms: _175  and  _177
REMARK   68  A    between atoms: _177  and  _178
REMARK   69  A    between atoms: _177  and  _180
REMARK   70  A    between atoms: _180  and  _181
REMARK   71  A    between atoms: _184  and  _186
REMARK   72  A    between atoms: _186  and  _187
REMARK   73  A    between atoms: _186  and  _189
REMARK   74  A    between atoms: _189  and  _190
REMARK   75  A    between atoms: _190  and  _191
REMARK   76  A    between atoms: _191  and  _192
REMARK   77  A    between atoms: _201  and  _203
REMARK   78  A    between atoms: _203  and  _204
REMARK   79  A    between atoms: _203  and  _206
REMARK   80  A    between atoms: _209  and  _211
REMARK   81  A    between atoms: _211  and  _212
REMARK   82  A    between atoms: _211  and  _214
REMARK   83  A    between atoms: _214  and  _215
REMARK   84  A    between atoms: _215  and  _216
REMARK   85  A    between atoms: _222  and  _223
REMARK   86  A    between atoms: _229  and  _230
REMARK   87  A    between atoms: _235  and  _237
REMARK   88  A    between atoms: _237  and  _238
REMARK   89  A    between atoms: _241  and  _243
REMARK   90  A    between atoms: _243  and  _244
REMARK   91  A    between atoms: _243  and  _246
REMARK   92  A    between atoms: _246  and  _247
REMARK   93  A    between atoms: _250  and  _252
REMARK   94  A    between atoms: _252  and  _253
REMARK   95  A    between atoms: _252  and  _255
REMARK   96  A    between atoms: _255  and  _256
REMARK   97  A    between atoms: _259  and  _261
REMARK   98  A    between atoms: _261  and  _262
REMARK   99  A    between atoms: _261  and  _264
REMARK  100  A    between atoms: _264  and  _265
REMARK  101  A    between atoms: _271  and  _273
REMARK  102  A    between atoms: _273  and  _274
REMARK  103  A    between atoms: _273  and  _276
REMARK  104  A    between atoms: _276  and  _277
REMARK  105  A    between atoms: _282  and  _284
REMARK  106  A    between atoms: _284  and  _285
REMARK  107  A    between atoms: _287  and  _289
REMARK  108  A    between atoms: _289  and  _290
REMARK  109  A    between atoms: _293  and  _295
REMARK  110  A    between atoms: _295  and  _296
REMARK  111  A    between atoms: _295  and  _298
REMARK  112  A    between atoms: _301  and  _303
REMARK  113  A    between atoms: _303  and  _304
REMARK  114  A    between atoms: _303  and  _306
REMARK  115  A    between atoms: _306  and  _307
REMARK  116  A    between atoms: _309  and  _311
REMARK  117  A    between atoms: _311  and  _312
REMARK  118  A    between atoms: _311  and  _314
REMARK  119  A    between atoms: _314  and  _315
REMARK  120  A    between atoms: _318  and  _320
REMARK  121  A    between atoms: _320  and  _321
REMARK  122  A    between atoms: _320  and  _323
REMARK  123  A    between atoms: _323  and  _324
REMARK  124  A    between atoms: _327  and  _329
REMARK  125  A    between atoms: _329  and  _330
REMARK  126  A    between atoms: _329  and  _332
REMARK  127  A    between atoms: _332  and  _333
REMARK  128  A    between atoms: _333  and  _334
REMARK  129  A    between atoms: _334  and  _335
REMARK  130  A    between atoms: _335  and  _336
REMARK  131  A    between atoms: _340  and  _342
REMARK  132  A    between atoms: _342  and  _343
REMARK  133  A    between atoms: _342  and  _345
REMARK  134  A    between atoms: _345  and  _346
REMARK  135  A    between atoms: _349  and  _351
REMARK  136  A    between atoms: _351  and  _352
REMARK  137  A    between atoms: _351  and  _354
REMARK  138  A    between atoms: _354  and  _355
REMARK  139  A    between atoms: _361  and  _363
REMARK  140  A    between atoms: _363  and  _364
REMARK  141  A    between atoms: _363  and  _366
REMARK  142  A    between atoms: _369  and  _371
REMARK  143  A    between atoms: _371  and  _372
REMARK  144  A    between atoms: _371  and  _374
REMARK  145  A    between atoms: _374  and  _375
REMARK  146  A    between atoms: _378  and  _380
REMARK  147  A    between atoms: _380  and  _381
REMARK  148  A    between atoms: _380  and  _383
REMARK  149  A    between atoms: _386  and  _388
REMARK  150  A    between atoms: _388  and  _389
REMARK  151  A    between atoms: _388  and  _391
REMARK  152  A    between atoms: _391  and  _392
REMARK  153  A    between atoms: _392  and  _393
REMARK  154  A    between atoms: _393  and  _394
REMARK  155  A    between atoms: _394  and  _395
REMARK  156  A    between atoms: _399  and  _401
REMARK  157  A    between atoms: _401  and  _402
REMARK  158  A    between atoms: _401  and  _404
REMARK  159  A    between atoms: _404  and  _405
REMARK  160  A    between atoms: _408  and  _410
REMARK  161  A    between atoms: _410  and  _411
REMARK  162  A    between atoms: _410  and  _413
REMARK  163  A    between atoms: _413  and  _414
REMARK  164  A    between atoms: _419  and  _420
REMARK  165  A    between atoms: _422  and  _424
REMARK  166  A    between atoms: _424  and  _425
REMARK  167  A    between atoms: _424  and  _427
REMARK  168  A    between atoms: _427  and  _428
REMARK  169  A    between atoms: _433  and  _434
REMARK  170  A    between atoms: _436  and  _438
REMARK  171  A    between atoms: _438  and  _439
REMARK  172  A    between atoms: _441  and  _443
REMARK  173  A    between atoms: _443  and  _444
REMARK  174  A    between atoms: _443  and  _446
REMARK  175  A    between atoms: _449  and  _451
REMARK  176  A    between atoms: _451  and  _452
REMARK  177  A    between atoms: _451  and  _454
REMARK  178  A    between atoms: _454  and  _455
REMARK  179  A    between atoms: _457  and  _459
REMARK  180  A    between atoms: _459  and  _460
REMARK  181  A    between atoms: _459  and  _462
REMARK  182  A    between atoms: _462  and  _463
REMARK  183  A    between atoms: _468  and  _469
REMARK  184  A    between atoms: _471  and  _473
REMARK  185  A    between atoms: _473  and  _474
REMARK  186  A    between atoms: _473  and  _476
REMARK  187  A    between atoms: _476  and  _477
REMARK  188  A    between atoms: _482  and  _483
REMARK  189  A    between atoms: _485  and  _487
REMARK  190  A    between atoms: _487  and  _488
REMARK  191  A    between atoms: _487  and  _490
REMARK  192  A    between atoms: _490  and  _491
REMARK  193  A    between atoms: _494  and  _496
REMARK  194  A    between atoms: _496  and  _497
REMARK  195  A    between atoms: _496  and  _499
REMARK  196  A    between atoms: _503  and  _504
REMARK  197  A    between atoms: _509  and  _511
REMARK  198  A    between atoms: _511  and  _512
REMARK  199  A    between atoms: _511  and  _514
REMARK  200  A    between atoms: _514  and  _515
REMARK  201  A    between atoms: _520  and  _521
REMARK  202  A    between atoms: _523  and  _525
REMARK  203  A    between atoms: _525  and  _526
REMARK  204  A    between atoms: _525  and  _528
REMARK  205  A    between atoms: _528  and  _529
REMARK  206  A    between atoms: _534  and  _535
REMARK  207  A    between atoms: _537  and  _539
REMARK  208  A    between atoms: _539  and  _540
REMARK  209  A    between atoms: _539  and  _542
REMARK  210  A    between atoms: _542  and  _543
REMARK  211  A    between atoms: _545  and  _547
REMARK  212  A    between atoms: _547  and  _548
REMARK  213  A    between atoms: _547  and  _550
REMARK  214  A    between atoms: _550  and  _551
REMARK  215  A    between atoms: _554  and  _556
REMARK  216  A    between atoms: _556  and  _557
REMARK  217  A    between atoms: _556  and  _559
REMARK  218  A    between atoms: _559  and  _560
REMARK  219  A    between atoms: _565  and  _566
REMARK  220  A    between atoms: _568  and  _570
REMARK  221  A    between atoms: _570  and  _571
REMARK  222  A    between atoms: _570  and  _573
REMARK  223  A    between atoms: _573  and  _574
REMARK  224  A    between atoms: _579  and  _580
REMARK  225  A    between atoms: _582  and  _584
REMARK  226  A    between atoms: _584  and  _585
REMARK  227  A    between atoms: _587  and  _589
REMARK  228  A    between atoms: _589  and  _590
REMARK  229  A    between atoms: _589  and  _592
REMARK  230  A    between atoms: _592  and  _593
REMARK  231  A    between atoms: _595  and  _597
REMARK  232  A    between atoms: _597  and  _598
REMARK  233  A    between atoms: _597  and  _600
REMARK  234  A    between atoms: _600  and  _601
REMARK  235  A    between atoms: _606  and  _608
REMARK  236  A    between atoms: _608  and  _609
REMARK  237  A    between atoms: _608  and  _611
REMARK  238  A    between atoms: _611  and  _612
REMARK  239  A    between atoms: _617  and  _618
REMARK                            x       y       z     vdW  Elec       q    Type
REMARK                         _______ _______ _______ _____ _____    ______ ____
ROOT
ATOM      1  O   HOH     1      -6.346 -15.999  -0.375  0.00  0.00    +0.000 OA
ENDROOT
TORSDOF 0
REMARK  Name = ../refined-set-2016/2qbw/2qbw_pocket.pdb
REMARK  239 active torsions:
REMARK  status: ('A' for Active; 'I' for Inactive)
REMARK    1  A    between atoms: _1  and  _5
REMARK    2  A    between atoms: _5  and  _6
REMARK    3  A    between atoms: _5  and  _8
REMARK    4  A    between atoms: _8  and  _9
REMARK    5  A    between atoms: _12  and  _13
REMARK    6  A    between atoms: _18  and  _20
REMARK    7  A    between atoms: _20  and  _21
REMARK    8  A    between atoms: _20  and  _23
REMARK    9  A    between atoms: _23  and  _24
REMARK   10  A    between atoms: _24  and  _25
REMARK   11  A    between atoms: _28  and  _30
REMARK   12  A    between atoms: _30  and  _31
REMARK   13  A    between atoms: _30  and  _33
REMARK   14  A    between atoms: _33  and  _34
REMARK   15  A    between atoms: _37  and  _39
REMARK   16  A    between atoms: _39  and  _40
REMARK   17  A    between atoms: _42  and  _44
REMARK   18  A    between atoms: _44  and  _45
REMARK   19  A    between atoms: _44  and  _47
REMARK   20  A    between atoms: _47  and  _48
REMARK   21  A    between atoms: _54  and  _56
REMARK   22  A    between atoms: _56  and  _57
REMARK   23  A    between atoms: _56  and  _59
REMARK   24  A    between atoms: _59  and  _60
REMARK   25  A    between atoms: _62  and  _64
REMARK   26  A    between atoms: _64  and  _65
REMARK   27  A    between atoms: _64  and  _67
REMARK   28  A    between atoms: _67  and  _68
REMARK   29  A    between atoms: _71  and  _73
REMARK   30  A    between atoms: _73  and  _74
REMARK   31  A    between atoms: _73  and  _76
REMARK   32  A    between atoms: _76  and  _77
REMARK   33  A    between atoms: _79  and  _81
REMARK   34  A    between atoms: _81  and  _82
REMARK   35  A    between atoms: _84  and  _86
REMARK   36  A    between atoms: _86  and  _87
REMARK   37  A    between atoms: _89  and  _91
REMARK   38  A    between atoms: _91  and  _92
REMARK   39  A    between atoms: _94  and  _96
REMARK   40  A    between atoms: _96  and  _97
REMARK   41  A    between atoms: _96  and  _99
REMARK   42  A    between atoms: _99  and  _100
REMARK   43  A    between atoms: _100  and  _101
REMARK   44  A    between atoms: _101  and  _102
REMARK   45  A    between atoms: _111  and  _113
REMARK   46  A    between atoms: _113  and  _114
REMARK   47  A    between atoms: _116  and  _118
REMARK   48  A    between atoms: _118  and  _119
REMARK   49  A    between atoms: _118  and  _121
REMARK   50  A    between atoms: _121  and  _122
REMARK   51  A    between atoms: _128  and  _129
REMARK   52  A    between atoms: _134  and  _136
REMARK   53  A    between atoms: _136  and  _137
REMARK   54  A    between atoms: _136  and  _139
REMARK   55  A    between atoms: _139  and  _140
REMARK   56  A    between atoms: _146  and  _148
REMARK   57  A    between atoms: _148  and  _149
REMARK   58  A    between atoms: _148  and  _151
REMARK   59  A    between atoms: _151  and  _152
REMARK   60  A    between atoms: _155  and  _157
REMARK   61  A    between atoms: _157  and  _158
REMARK   62  A    between atoms: _157  and  _160
REMARK   63  A    between atoms: _160  and  _161
REMARK   64  A    between atoms: _167  and  _169
REMARK   65  A    between atoms: _169  and  _170
REMARK   66  A    between atoms: _169  and  _172
REMARK   67  A    between atoms: _175  and  _177
REMARK   68  A    between atoms: _177  and  _178
REMARK   69  A    between atoms: _177  and  _180
REMARK   70  A    between atoms: _180  and  _181
REMARK   71  A    between atoms: _184  and  _186
REMARK   72  A    between atoms: _186  and  _187
REMARK   73  A    between atoms: _186  and  _189
REMARK   74  A    between atoms: _189  and  _190
REMARK   75  A    between atoms: _190  and  _191
REMARK   76  A    between atoms: _191  and  _192
REMARK   77  A    between atoms: _201  and  _203
REMARK   78  A    between atoms: _203  and  _204
REMARK   79  A    between atoms: _203  and  _206
REMARK   80  A    between atoms: _209  and  _211
REMARK   81  A    between atoms: _211  and  _212
REMARK   82  A    between atoms: _211  and  _214
REMARK   83  A    between atoms: _214  and  _215
REMARK   84  A    between atoms: _215  and  _216
REMARK   85  A    between atoms: _222  and  _223
REMARK   86  A    between atoms: _229  and  _230
REMARK   87  A    between atoms: _235  and  _237
REMARK   88  A    between atoms: _237  and  _238
REMARK   89  A    between atoms: _241  and  _243
REMARK   90  A    between atoms: _243  and  _244
REMARK   91  A    between atoms: _243  and  _246
REMARK   92  A    between atoms: _246  and  _247
REMARK   93  A    between atoms: _250  and  _252
REMARK   94  A    between atoms: _252  and  _253
REMARK   95  A    between atoms: _252  and  _255
REMARK   96  A    between atoms: _255  and  _256
REMARK   97  A    between atoms: _259  and  _261
REMARK   98  A    between atoms: _261  and  _262
REMARK   99  A    between atoms: _261  and  _264
REMARK  100  A    between atoms: _264  and  _265
REMARK  101  A    between atoms: _271  and  _273
REMARK  102  A    between atoms: _273  and  _274
REMARK  103  A    between atoms: _273  and  _276
REMARK  104  A    between atoms: _276  and  _277
REMARK  105  A    between atoms: _282  and  _284
REMARK  106  A    between atoms: _284  and  _285
REMARK  107  A    between atoms: _287  and  _289
REMARK  108  A    between atoms: _289  and  _290
REMARK  109  A    between atoms: _293  and  _295
REMARK  110  A    between atoms: _295  and  _296
REMARK  111  A    between atoms: _295  and  _298
REMARK  112  A    between atoms: _301  and  _303
REMARK  113  A    between atoms: _303  and  _304
REMARK  114  A    between atoms: _303  and  _306
REMARK  115  A    between atoms: _306  and  _307
REMARK  116  A    between atoms: _309  and  _311
REMARK  117  A    between atoms: _311  and  _312
REMARK  118  A    between atoms: _311  and  _314
REMARK  119  A    between atoms: _314  and  _315
REMARK  120  A    between atoms: _318  and  _320
REMARK  121  A    between atoms: _320  and  _321
REMARK  122  A    between atoms: _320  and  _323
REMARK  123  A    between atoms: _323  and  _324
REMARK  124  A    between atoms: _327  and  _329
REMARK  125  A    between atoms: _329  and  _330
REMARK  126  A    between atoms: _329  and  _332
REMARK  127  A    between atoms: _332  and  _333
REMARK  128  A    between atoms: _333  and  _334
REMARK  129  A    between atoms: _334  and  _335
REMARK  130  A    between atoms: _335  and  _336
REMARK  131  A    between atoms: _340  and  _342
REMARK  132  A    between atoms: _342  and  _343
REMARK  133  A    between atoms: _342  and  _345
REMARK  134  A    between atoms: _345  and  _346
REMARK  135  A    between atoms: _349  and  _351
REMARK  136  A    between atoms: _351  and  _352
REMARK  137  A    between atoms: _351  and  _354
REMARK  138  A    between atoms: _354  and  _355
REMARK  139  A    between atoms: _361  and  _363
REMARK  140  A    between atoms: _363  and  _364
REMARK  141  A    between atoms: _363  and  _366
REMARK  142  A    between atoms: _369  and  _371
REMARK  143  A    between atoms: _371  and  _372
REMARK  144  A    between atoms: _371  and  _374
REMARK  145  A    between atoms: _374  and  _375
REMARK  146  A    between atoms: _378  and  _380
REMARK  147  A    between atoms: _380  and  _381
REMARK  148  A    between atoms: _380  and  _383
REMARK  149  A    between atoms: _386  and  _388
REMARK  150  A    between atoms: _388  and  _389
REMARK  151  A    between atoms: _388  and  _391
REMARK  152  A    between atoms: _391  and  _392
REMARK  153  A    between atoms: _392  and  _393
REMARK  154  A    between atoms: _393  and  _394
REMARK  155  A    between atoms: _394  and  _395
REMARK  156  A    between atoms: _399  and  _401
REMARK  157  A    between atoms: _401  and  _402
REMARK  158  A    between atoms: _401  and  _404
REMARK  159  A    between atoms: _404  and  _405
REMARK  160  A    between atoms: _408  and  _410
REMARK  161  A    between atoms: _410  and  _411
REMARK  162  A    between atoms: _410  and  _413
REMARK  163  A    between atoms: _413  and  _414
REMARK  164  A    between atoms: _419  and  _420
REMARK  165  A    between atoms: _422  and  _424
REMARK  166  A    between atoms: _424  and  _425
REMARK  167  A    between atoms: _424  and  _427
REMARK  168  A    between atoms: _427  and  _428
REMARK  169  A    between atoms: _433  and  _434
REMARK  170  A    between atoms: _436  and  _438
REMARK  171  A    between atoms: _438  and  _439
REMARK  172  A    between atoms: _441  and  _443
REMARK  173  A    between atoms: _443  and  _444
REMARK  174  A    between atoms: _443  and  _446
REMARK  175  A    between atoms: _449  and  _451
REMARK  176  A    between atoms: _451  and  _452
REMARK  177  A    between atoms: _451  and  _454
REMARK  178  A    between atoms: _454  and  _455
REMARK  179  A    between atoms: _457  and  _459
REMARK  180  A    between atoms: _459  and  _460
REMARK  181  A    between atoms: _459  and  _462
REMARK  182  A    between atoms: _462  and  _463
REMARK  183  A    between atoms: _468  and  _469
REMARK  184  A    between atoms: _471  and  _473
REMARK  185  A    between atoms: _473  and  _474
REMARK  186  A    between atoms: _473  and  _476
REMARK  187  A    between atoms: _476  and  _477
REMARK  188  A    between atoms: _482  and  _483
REMARK  189  A    between atoms: _485  and  _487
REMARK  190  A    between atoms: _487  and  _488
REMARK  191  A    between atoms: _487  and  _490
REMARK  192  A    between atoms: _490  and  _491
REMARK  193  A    between atoms: _494  and  _496
REMARK  194  A    between atoms: _496  and  _497
REMARK  195  A    between atoms: _496  and  _499
REMARK  196  A    between atoms: _503  and  _504
REMARK  197  A    between atoms: _509  and  _511
REMARK  198  A    between atoms: _511  and  _512
REMARK  199  A    between atoms: _511  and  _514
REMARK  200  A    between atoms: _514  and  _515
REMARK  201  A    between atoms: _520  and  _521
REMARK  202  A    between atoms: _523  and  _525
REMARK  203  A    between atoms: _525  and  _526
REMARK  204  A    between atoms: _525  and  _528
REMARK  205  A    between atoms: _528  and  _529
REMARK  206  A    between atoms: _534  and  _535
REMARK  207  A    between atoms: _537  and  _539
REMARK  208  A    between atoms: _539  and  _540
REMARK  209  A    between atoms: _539  and  _542
REMARK  210  A    between atoms: _542  and  _543
REMARK  211  A    between atoms: _545  and  _547
REMARK  212  A    between atoms: _547  and  _548
REMARK  213  A    between atoms: _547  and  _550
REMARK  214  A    between atoms: _550  and  _551
REMARK  215  A    between atoms: _554  and  _556
REMARK  216  A    between atoms: _556  and  _557
REMARK  217  A    between atoms: _556  and  _559
REMARK  218  A    between atoms: _559  and  _560
REMARK  219  A    between atoms: _565  and  _566
REMARK  220  A    between atoms: _568  and  _570
REMARK  221  A    between atoms: _570  and  _571
REMARK  222  A    between atoms: _570  and  _573
REMARK  223  A    between atoms: _573  and  _574
REMARK  224  A    between atoms: _579  and  _580
REMARK  225  A    between atoms: _582  and  _584
REMARK  226  A    between atoms: _584  and  _585
REMARK  227  A    between atoms: _587  and  _589
REMARK  228  A    between atoms: _589  and  _590
REMARK  229  A    between atoms: _589  and  _592
REMARK  230  A    between atoms: _592  and  _593
REMARK  231  A    between atoms: _595  and  _597
REMARK  232  A    between atoms: _597  and  _598
REMARK  233  A    between atoms: _597  and  _600
REMARK  234  A    between atoms: _600  and  _601
REMARK  235  A    between atoms: _606  and  _608
REMARK  236  A    between atoms: _608  and  _609
REMARK  237  A    between atoms: _608  and  _611
REMARK  238  A    between atoms: _611  and  _612
REMARK  239  A    between atoms: _617  and  _618
REMARK                            x       y       z     vdW  Elec       q    Type
REMARK                         _______ _______ _______ _____ _____    ______ ____
ROOT
ATOM      1  O   HOH     1      -1.737 -18.944 -14.684  0.00  0.00    +0.000 OA
ENDROOT
TORSDOF 0
REMARK  Name = ../refined-set-2016/2qbw/2qbw_pocket.pdb
REMARK  239 active torsions:
REMARK  status: ('A' for Active; 'I' for Inactive)
REMARK    1  A    between atoms: _1  and  _5
REMARK    2  A    between atoms: _5  and  _6
REMARK    3  A    between atoms: _5  and  _8
REMARK    4  A    between atoms: _8  and  _9
REMARK    5  A    between atoms: _12  and  _13
REMARK    6  A    between atoms: _18  and  _20
REMARK    7  A    between atoms: _20  and  _21
REMARK    8  A    between atoms: _20  and  _23
REMARK    9  A    between atoms: _23  and  _24
REMARK   10  A    between atoms: _24  and  _25
REMARK   11  A    between atoms: _28  and  _30
REMARK   12  A    between atoms: _30  and  _31
REMARK   13  A    between atoms: _30  and  _33
REMARK   14  A    between atoms: _33  and  _34
REMARK   15  A    between atoms: _37  and  _39
REMARK   16  A    between atoms: _39  and  _40
REMARK   17  A    between atoms: _42  and  _44
REMARK   18  A    between atoms: _44  and  _45
REMARK   19  A    between atoms: _44  and  _47
REMARK   20  A    between atoms: _47  and  _48
REMARK   21  A    between atoms: _54  and  _56
REMARK   22  A    between atoms: _56  and  _57
REMARK   23  A    between atoms: _56  and  _59
REMARK   24  A    between atoms: _59  and  _60
REMARK   25  A    between atoms: _62  and  _64
REMARK   26  A    between atoms: _64  and  _65
REMARK   27  A    between atoms: _64  and  _67
REMARK   28  A    between atoms: _67  and  _68
REMARK   29  A    between atoms: _71  and  _73
REMARK   30  A    between atoms: _73  and  _74
REMARK   31  A    between atoms: _73  and  _76
REMARK   32  A    between atoms: _76  and  _77
REMARK   33  A    between atoms: _79  and  _81
REMARK   34  A    between atoms: _81  and  _82
REMARK   35  A    between atoms: _84  and  _86
REMARK   36  A    between atoms: _86  and  _87
REMARK   37  A    between atoms: _89  and  _91
REMARK   38  A    between atoms: _91  and  _92
REMARK   39  A    between atoms: _94  and  _96
REMARK   40  A    between atoms: _96  and  _97
REMARK   41  A    between atoms: _96  and  _99
REMARK   42  A    between atoms: _99  and  _100
REMARK   43  A    between atoms: _100  and  _101
REMARK   44  A    between atoms: _101  and  _102
REMARK   45  A    between atoms: _111  and  _113
REMARK   46  A    between atoms: _113  and  _114
REMARK   47  A    between atoms: _116  and  _118
REMARK   48  A    between atoms: _118  and  _119
REMARK   49  A    between atoms: _118  and  _121
REMARK   50  A    between atoms: _121  and  _122
REMARK   51  A    between atoms: _128  and  _129
REMARK   52  A    between atoms: _134  and  _136
REMARK   53  A    between atoms: _136  and  _137
REMARK   54  A    between atoms: _136  and  _139
REMARK   55  A    between atoms: _139  and  _140
REMARK   56  A    between atoms: _146  and  _148
REMARK   57  A    between atoms: _148  and  _149
REMARK   58  A    between atoms: _148  and  _151
REMARK   59  A    between atoms: _151  and  _152
REMARK   60  A    between atoms: _155  and  _157
REMARK   61  A    between atoms: _157  and  _158
REMARK   62  A    between atoms: _157  and  _160
REMARK   63  A    between atoms: _160  and  _161
REMARK   64  A    between atoms: _167  and  _169
REMARK   65  A    between atoms: _169  and  _170
REMARK   66  A    between atoms: _169  and  _172
REMARK   67  A    between atoms: _175  and  _177
REMARK   68  A    between atoms: _177  and  _178
REMARK   69  A    between atoms: _177  and  _180
REMARK   70  A    between atoms: _180  and  _181
REMARK   71  A    between atoms: _184  and  _186
REMARK   72  A    between atoms: _186  and  _187
REMARK   73  A    between atoms: _186  and  _189
REMARK   74  A    between atoms: _189  and  _190
REMARK   75  A    between atoms: _190  and  _191
REMARK   76  A    between atoms: _191  and  _192
REMARK   77  A    between atoms: _201  and  _203
REMARK   78  A    between atoms: _203  and  _204
REMARK   79  A    between atoms: _203  and  _206
REMARK   80  A    between atoms: _209  and  _211
REMARK   81  A    between atoms: _211  and  _212
REMARK   82  A    between atoms: _211  and  _214
REMARK   83  A    between atoms: _214  and  _215
REMARK   84  A    between atoms: _215  and  _216
REMARK   85  A    between atoms: _222  and  _223
REMARK   86  A    between atoms: _229  and  _230
REMARK   87  A    between atoms: _235  and  _237
REMARK   88  A    between atoms: _237  and  _238
REMARK   89  A    between atoms: _241  and  _243
REMARK   90  A    between atoms: _243  and  _244
REMARK   91  A    between atoms: _243  and  _246
REMARK   92  A    between atoms: _246  and  _247
REMARK   93  A    between atoms: _250  and  _252
REMARK   94  A    between atoms: _252  and  _253
REMARK   95  A    between atoms: _252  and  _255
REMARK   96  A    between atoms: _255  and  _256
REMARK   97  A    between atoms: _259  and  _261
REMARK   98  A    between atoms: _261  and  _262
REMARK   99  A    between atoms: _261  and  _264
REMARK  100  A    between atoms: _264  and  _265
REMARK  101  A    between atoms: _271  and  _273
REMARK  102  A    between atoms: _273  and  _274
REMARK  103  A    between atoms: _273  and  _276
REMARK  104  A    between atoms: _276  and  _277
REMARK  105  A    between atoms: _282  and  _284
REMARK  106  A    between atoms: _284  and  _285
REMARK  107  A    between atoms: _287  and  _289
REMARK  108  A    between atoms: _289  and  _290
REMARK  109  A    between atoms: _293  and  _295
REMARK  110  A    between atoms: _295  and  _296
REMARK  111  A    between atoms: _295  and  _298
REMARK  112  A    between atoms: _301  and  _303
REMARK  113  A    between atoms: _303  and  _304
REMARK  114  A    between atoms: _303  and  _306
REMARK  115  A    between atoms: _306  and  _307
REMARK  116  A    between atoms: _309  and  _311
REMARK  117  A    between atoms: _311  and  _312
REMARK  118  A    between atoms: _311  and  _314
REMARK  119  A    between atoms: _314  and  _315
REMARK  120  A    between atoms: _318  and  _320
REMARK  121  A    between atoms: _320  and  _321
REMARK  122  A    between atoms: _320  and  _323
REMARK  123  A    between atoms: _323  and  _324
REMARK  124  A    between atoms: _327  and  _329
REMARK  125  A    between atoms: _329  and  _330
REMARK  126  A    between atoms: _329  and  _332
REMARK  127  A    between atoms: _332  and  _333
REMARK  128  A    between atoms: _333  and  _334
REMARK  129  A    between atoms: _334  and  _335
REMARK  130  A    between atoms: _335  and  _336
REMARK  131  A    between atoms: _340  and  _342
REMARK  132  A    between atoms: _342  and  _343
REMARK  133  A    between atoms: _342  and  _345
REMARK  134  A    between atoms: _345  and  _346
REMARK  135  A    between atoms: _349  and  _351
REMARK  136  A    between atoms: _351  and  _352
REMARK  137  A    between atoms: _351  and  _354
REMARK  138  A    between atoms: _354  and  _355
REMARK  139  A    between atoms: _361  and  _363
REMARK  140  A    between atoms: _363  and  _364
REMARK  141  A    between atoms: _363  and  _366
REMARK  142  A    between atoms: _369  and  _371
REMARK  143  A    between atoms: _371  and  _372
REMARK  144  A    between atoms: _371  and  _374
REMARK  145  A    between atoms: _374  and  _375
REMARK  146  A    between atoms: _378  and  _380
REMARK  147  A    between atoms: _380  and  _381
REMARK  148  A    between atoms: _380  and  _383
REMARK  149  A    between atoms: _386  and  _388
REMARK  150  A    between atoms: _388  and  _389
REMARK  151  A    between atoms: _388  and  _391
REMARK  152  A    between atoms: _391  and  _392
REMARK  153  A    between atoms: _392  and  _393
REMARK  154  A    between atoms: _393  and  _394
REMARK  155  A    between atoms: _394  and  _395
REMARK  156  A    between atoms: _399  and  _401
REMARK  157  A    between atoms: _401  and  _402
REMARK  158  A    between atoms: _401  and  _404
REMARK  159  A    between atoms: _404  and  _405
REMARK  160  A    between atoms: _408  and  _410
REMARK  161  A    between atoms: _410  and  _411
REMARK  162  A    between atoms: _410  and  _413
REMARK  163  A    between atoms: _413  and  _414
REMARK  164  A    between atoms: _419  and  _420
REMARK  165  A    between atoms: _422  and  _424
REMARK  166  A    between atoms: _424  and  _425
REMARK  167  A    between atoms: _424  and  _427
REMARK  168  A    between atoms: _427  and  _428
REMARK  169  A    between atoms: _433  and  _434
REMARK  170  A    between atoms: _436  and  _438
REMARK  171  A    between atoms: _438  and  _439
REMARK  172  A    between atoms: _441  and  _443
REMARK  173  A    between atoms: _443  and  _444
REMARK  174  A    between atoms: _443  and  _446
REMARK  175  A    between atoms: _449  and  _451
REMARK  176  A    between atoms: _451  and  _452
REMARK  177  A    between atoms: _451  and  _454
REMARK  178  A    between atoms: _454  and  _455
REMARK  179  A    between atoms: _457  and  _459
REMARK  180  A    between atoms: _459  and  _460
REMARK  181  A    between atoms: _459  and  _462
REMARK  182  A    between atoms: _462  and  _463
REMARK  183  A    between atoms: _468  and  _469
REMARK  184  A    between atoms: _471  and  _473
REMARK  185  A    between atoms: _473  and  _474
REMARK  186  A    between atoms: _473  and  _476
REMARK  187  A    between atoms: _476  and  _477
REMARK  188  A    between atoms: _482  and  _483
REMARK  189  A    between atoms: _485  and  _487
REMARK  190  A    between atoms: _487  and  _488
REMARK  191  A    between atoms: _487  and  _490
REMARK  192  A    between atoms: _490  and  _491
REMARK  193  A    between atoms: _494  and  _496
REMARK  194  A    between atoms: _496  and  _497
REMARK  195  A    between atoms: _496  and  _499
REMARK  196  A    between atoms: _503  and  _504
REMARK  197  A    between atoms: _509  and  _511
REMARK  198  A    between atoms: _511  and  _512
REMARK  199  A    between atoms: _511  and  _514
REMARK  200  A    between atoms: _514  and  _515
REMARK  201  A    between atoms: _520  and  _521
REMARK  202  A    between atoms: _523  and  _525
REMARK  203  A    between atoms: _525  and  _526
REMARK  204  A    between atoms: _525  and  _528
REMARK  205  A    between atoms: _528  and  _529
REMARK  206  A    between atoms: _534  and  _535
REMARK  207  A    between atoms: _537  and  _539
REMARK  208  A    between atoms: _539  and  _540
REMARK  209  A    between atoms: _539  and  _542
REMARK  210  A    between atoms: _542  and  _543
REMARK  211  A    between atoms: _545  and  _547
REMARK  212  A    between atoms: _547  and  _548
REMARK  213  A    between atoms: _547  and  _550
REMARK  214  A    between atoms: _550  and  _551
REMARK  215  A    between atoms: _554  and  _556
REMARK  216  A    between atoms: _556  and  _557
REMARK  217  A    between atoms: _556  and  _559
REMARK  218  A    between atoms: _559  and  _560
REMARK  219  A    between atoms: _565  and  _566
REMARK  220  A    between atoms: _568  and  _570
REMARK  221  A    between atoms: _570  and  _571
REMARK  222  A    between atoms: _570  and  _573
REMARK  223  A    between atoms: _573  and  _574
REMARK  224  A    between atoms: _579  and  _580
REMARK  225  A    between atoms: _582  and  _584
REMARK  226  A    between atoms: _584  and  _585
REMARK  227  A    between atoms: _587  and  _589
REMARK  228  A    between atoms: _589  and  _590
REMARK  229  A    between atoms: _589  and  _592
REMARK  230  A    between atoms: _592  and  _593
REMARK  231  A    between atoms: _595  and  _597
REMARK  232  A    between atoms: _597  and  _598
REMARK  233  A    between atoms: _597  and  _600
REMARK  234  A    between atoms: _600  and  _601
REMARK  235  A    between atoms: _606  and  _608
REMARK  236  A    between atoms: _608  and  _609
REMARK  237  A    between atoms: _608  and  _611
REMARK  238  A    between atoms: _611  and  _612
REMARK  239  A    between atoms: _617  and  _618
REMARK                            x       y       z     vdW  Elec       q    Type
REMARK                         _______ _______ _______ _____ _____    ______ ____
ROOT
ATOM      1  O   HOH     1      -4.369  -3.313  -3.560  0.00  0.00    +0.000 OA
ENDROOT
TORSDOF 0
REMARK  Name = ../refined-set-2016/2qbw/2qbw_pocket.pdb
REMARK  239 active torsions:
REMARK  status: ('A' for Active; 'I' for Inactive)
REMARK    1  A    between atoms: _1  and  _5
REMARK    2  A    between atoms: _5  and  _6
REMARK    3  A    between atoms: _5  and  _8
REMARK    4  A    between atoms: _8  and  _9
REMARK    5  A    between atoms: _12  and  _13
REMARK    6  A    between atoms: _18  and  _20
REMARK    7  A    between atoms: _20  and  _21
REMARK    8  A    between atoms: _20  and  _23
REMARK    9  A    between atoms: _23  and  _24
REMARK   10  A    between atoms: _24  and  _25
REMARK   11  A    between atoms: _28  and  _30
REMARK   12  A    between atoms: _30  and  _31
REMARK   13  A    between atoms: _30  and  _33
REMARK   14  A    between atoms: _33  and  _34
REMARK   15  A    between atoms: _37  and  _39
REMARK   16  A    between atoms: _39  and  _40
REMARK   17  A    between atoms: _42  and  _44
REMARK   18  A    between atoms: _44  and  _45
REMARK   19  A    between atoms: _44  and  _47
REMARK   20  A    between atoms: _47  and  _48
REMARK   21  A    between atoms: _54  and  _56
REMARK   22  A    between atoms: _56  and  _57
REMARK   23  A    between atoms: _56  and  _59
REMARK   24  A    between atoms: _59  and  _60
REMARK   25  A    between atoms: _62  and  _64
REMARK   26  A    between atoms: _64  and  _65
REMARK   27  A    between atoms: _64  and  _67
REMARK   28  A    between atoms: _67  and  _68
REMARK   29  A    between atoms: _71  and  _73
REMARK   30  A    between atoms: _73  and  _74
REMARK   31  A    between atoms: _73  and  _76
REMARK   32  A    between atoms: _76  and  _77
REMARK   33  A    between atoms: _79  and  _81
REMARK   34  A    between atoms: _81  and  _82
REMARK   35  A    between atoms: _84  and  _86
REMARK   36  A    between atoms: _86  and  _87
REMARK   37  A    between atoms: _89  and  _91
REMARK   38  A    between atoms: _91  and  _92
REMARK   39  A    between atoms: _94  and  _96
REMARK   40  A    between atoms: _96  and  _97
REMARK   41  A    between atoms: _96  and  _99
REMARK   42  A    between atoms: _99  and  _100
REMARK   43  A    between atoms: _100  and  _101
REMARK   44  A    between atoms: _101  and  _102
REMARK   45  A    between atoms: _111  and  _113
REMARK   46  A    between atoms: _113  and  _114
REMARK   47  A    between atoms: _116  and  _118
REMARK   48  A    between atoms: _118  and  _119
REMARK   49  A    between atoms: _118  and  _121
REMARK   50  A    between atoms: _121  and  _122
REMARK   51  A    between atoms: _128  and  _129
REMARK   52  A    between atoms: _134  and  _136
REMARK   53  A    between atoms: _136  and  _137
REMARK   54  A    between atoms: _136  and  _139
REMARK   55  A    between atoms: _139  and  _140
REMARK   56  A    between atoms: _146  and  _148
REMARK   57  A    between atoms: _148  and  _149
REMARK   58  A    between atoms: _148  and  _151
REMARK   59  A    between atoms: _151  and  _152
REMARK   60  A    between atoms: _155  and  _157
REMARK   61  A    between atoms: _157  and  _158
REMARK   62  A    between atoms: _157  and  _160
REMARK   63  A    between atoms: _160  and  _161
REMARK   64  A    between atoms: _167  and  _169
REMARK   65  A    between atoms: _169  and  _170
REMARK   66  A    between atoms: _169  and  _172
REMARK   67  A    between atoms: _175  and  _177
REMARK   68  A    between atoms: _177  and  _178
REMARK   69  A    between atoms: _177  and  _180
REMARK   70  A    between atoms: _180  and  _181
REMARK   71  A    between atoms: _184  and  _186
REMARK   72  A    between atoms: _186  and  _187
REMARK   73  A    between atoms: _186  and  _189
REMARK   74  A    between atoms: _189  and  _190
REMARK   75  A    between atoms: _190  and  _191
REMARK   76  A    between atoms: _191  and  _192
REMARK   77  A    between atoms: _201  and  _203
REMARK   78  A    between atoms: _203  and  _204
REMARK   79  A    between atoms: _203  and  _206
REMARK   80  A    between atoms: _209  and  _211
REMARK   81  A    between atoms: _211  and  _212
REMARK   82  A    between atoms: _211  and  _214
REMARK   83  A    between atoms: _214  and  _215
REMARK   84  A    between atoms: _215  and  _216
REMARK   85  A    between atoms: _222  and  _223
REMARK   86  A    between atoms: _229  and  _230
REMARK   87  A    between atoms: _235  and  _237
REMARK   88  A    between atoms: _237  and  _238
REMARK   89  A    between atoms: _241  and  _243
REMARK   90  A    between atoms: _243  and  _244
REMARK   91  A    between atoms: _243  and  _246
REMARK   92  A    between atoms: _246  and  _247
REMARK   93  A    between atoms: _250  and  _252
REMARK   94  A    between atoms: _252  and  _253
REMARK   95  A    between atoms: _252  and  _255
REMARK   96  A    between atoms: _255  and  _256
REMARK   97  A    between atoms: _259  and  _261
REMARK   98  A    between atoms: _261  and  _262
REMARK   99  A    between atoms: _261  and  _264
REMARK  100  A    between atoms: _264  and  _265
REMARK  101  A    between atoms: _271  and  _273
REMARK  102  A    between atoms: _273  and  _274
REMARK  103  A    between atoms: _273  and  _276
REMARK  104  A    between atoms: _276  and  _277
REMARK  105  A    between atoms: _282  and  _284
REMARK  106  A    between atoms: _284  and  _285
REMARK  107  A    between atoms: _287  and  _289
REMARK  108  A    between atoms: _289  and  _290
REMARK  109  A    between atoms: _293  and  _295
REMARK  110  A    between atoms: _295  and  _296
REMARK  111  A    between atoms: _295  and  _298
REMARK  112  A    between atoms: _301  and  _303
REMARK  113  A    between atoms: _303  and  _304
REMARK  114  A    between atoms: _303  and  _306
REMARK  115  A    between atoms: _306  and  _307
REMARK  116  A    between atoms: _309  and  _311
REMARK  117  A    between atoms: _311  and  _312
REMARK  118  A    between atoms: _311  and  _314
REMARK  119  A    between atoms: _314  and  _315
REMARK  120  A    between atoms: _318  and  _320
REMARK  121  A    between atoms: _320  and  _321
REMARK  122  A    between atoms: _320  and  _323
REMARK  123  A    between atoms: _323  and  _324
REMARK  124  A    between atoms: _327  and  _329
REMARK  125  A    between atoms: _329  and  _330
REMARK  126  A    between atoms: _329  and  _332
REMARK  127  A    between atoms: _332  and  _333
REMARK  128  A    between atoms: _333  and  _334
REMARK  129  A    between atoms: _334  and  _335
REMARK  130  A    between atoms: _335  and  _336
REMARK  131  A    between atoms: _340  and  _342
REMARK  132  A    between atoms: _342  and  _343
REMARK  133  A    between atoms: _342  and  _345
REMARK  134  A    between atoms: _345  and  _346
REMARK  135  A    between atoms: _349  and  _351
REMARK  136  A    between atoms: _351  and  _352
REMARK  137  A    between atoms: _351  and  _354
REMARK  138  A    between atoms: _354  and  _355
REMARK  139  A    between atoms: _361  and  _363
REMARK  140  A    between atoms: _363  and  _364
REMARK  141  A    between atoms: _363  and  _366
REMARK  142  A    between atoms: _369  and  _371
REMARK  143  A    between atoms: _371  and  _372
REMARK  144  A    between atoms: _371  and  _374
REMARK  145  A    between atoms: _374  and  _375
REMARK  146  A    between atoms: _378  and  _380
REMARK  147  A    between atoms: _380  and  _381
REMARK  148  A    between atoms: _380  and  _383
REMARK  149  A    between atoms: _386  and  _388
REMARK  150  A    between atoms: _388  and  _389
REMARK  151  A    between atoms: _388  and  _391
REMARK  152  A    between atoms: _391  and  _392
REMARK  153  A    between atoms: _392  and  _393
REMARK  154  A    between atoms: _393  and  _394
REMARK  155  A    between atoms: _394  and  _395
REMARK  156  A    between atoms: _399  and  _401
REMARK  157  A    between atoms: _401  and  _402
REMARK  158  A    between atoms: _401  and  _404
REMARK  159  A    between atoms: _404  and  _405
REMARK  160  A    between atoms: _408  and  _410
REMARK  161  A    between atoms: _410  and  _411
REMARK  162  A    between atoms: _410  and  _413
REMARK  163  A    between atoms: _413  and  _414
REMARK  164  A    between atoms: _419  and  _420
REMARK  165  A    between atoms: _422  and  _424
REMARK  166  A    between atoms: _424  and  _425
REMARK  167  A    between atoms: _424  and  _427
REMARK  168  A    between atoms: _427  and  _428
REMARK  169  A    between atoms: _433  and  _434
REMARK  170  A    between atoms: _436  and  _438
REMARK  171  A    between atoms: _438  and  _439
REMARK  172  A    between atoms: _441  and  _443
REMARK  173  A    between atoms: _443  and  _444
REMARK  174  A    between atoms: _443  and  _446
REMARK  175  A    between atoms: _449  and  _451
REMARK  176  A    between atoms: _451  and  _452
REMARK  177  A    between atoms: _451  and  _454
REMARK  178  A    between atoms: _454  and  _455
REMARK  179  A    between atoms: _457  and  _459
REMARK  180  A    between atoms: _459  and  _460
REMARK  181  A    between atoms: _459  and  _462
REMARK  182  A    between atoms: _462  and  _463
REMARK  183  A    between atoms: _468  and  _469
REMARK  184  A    between atoms: _471  and  _473
REMARK  185  A    between atoms: _473  and  _474
REMARK  186  A    between atoms: _473  and  _476
REMARK  187  A    between atoms: _476  and  _477
REMARK  188  A    between atoms: _482  and  _483
REMARK  189  A    between atoms: _485  and  _487
REMARK  190  A    between atoms: _487  and  _488
REMARK  191  A    between atoms: _487  and  _490
REMARK  192  A    between atoms: _490  and  _491
REMARK  193  A    between atoms: _494  and  _496
REMARK  194  A    between atoms: _496  and  _497
REMARK  195  A    between atoms: _496  and  _499
REMARK  196  A    between atoms: _503  and  _504
REMARK  197  A    between atoms: _509  and  _511
REMARK  198  A    between atoms: _511  and  _512
REMARK  199  A    between atoms: _511  and  _514
REMARK  200  A    between atoms: _514  and  _515
REMARK  201  A    between atoms: _520  and  _521
REMARK  202  A    between atoms: _523  and  _525
REMARK  203  A    between atoms: _525  and  _526
REMARK  204  A    between atoms: _525  and  _528
REMARK  205  A    between atoms: _528  and  _529
REMARK  206  A    between atoms: _534  and  _535
REMARK  207  A    between atoms: _537  and  _539
REMARK  208  A    between atoms: _539  and  _540
REMARK  209  A    between atoms: _539  and  _542
REMARK  210  A    between atoms: _542  and  _543
REMARK  211  A    between atoms: _545  and  _547
REMARK  212  A    between atoms: _547  and  _548
REMARK  213  A    between atoms: _547  and  _550
REMARK  214  A    between atoms: _550  and  _551
REMARK  215  A    between atoms: _554  and  _556
REMARK  216  A    between atoms: _556  and  _557
REMARK  217  A    between atoms: _556  and  _559
REMARK  218  A    between atoms: _559  and  _560
REMARK  219  A    between atoms: _565  and  _566
REMARK  220  A    between atoms: _568  and  _570
REMARK  221  A    between atoms: _570  and  _571
REMARK  222  A    between atoms: _570  and  _573
REMARK  223  A    between atoms: _573  and  _574
REMARK  224  A    between atoms: _579  and  _580
REMARK  225  A    between atoms: _582  and  _584
REMARK  226  A    between atoms: _584  and  _585
REMARK  227  A    between atoms: _587  and  _589
REMARK  228  A    between atoms: _589  and  _590
REMARK  229  A    between atoms: _589  and  _592
REMARK  230  A    between atoms: _592  and  _593
REMARK  231  A    between atoms: _595  and  _597
REMARK  232  A    between atoms: _597  and  _598
REMARK  233  A    between atoms: _597  and  _600
REMARK  234  A    between atoms: _600  and  _601
REMARK  235  A    between atoms: _606  and  _608
REMARK  236  A    between atoms: _608  and  _609
REMARK  237  A    between atoms: _608  and  _611
REMARK  238  A    between atoms: _611  and  _612
REMARK  239  A    between atoms: _617  and  _618
REMARK                            x       y       z     vdW  Elec       q    Type
REMARK                         _______ _______ _______ _____ _____    ______ ____
ROOT
ATOM      1  O   HOH     1       0.002 -19.831 -16.436  0.00  0.00    +0.000 OA
ENDROOT
TORSDOF 0
REMARK  Name = ../refined-set-2016/2qbw/2qbw_pocket.pdb
REMARK  239 active torsions:
REMARK  status: ('A' for Active; 'I' for Inactive)
REMARK    1  A    between atoms: _1  and  _5
REMARK    2  A    between atoms: _5  and  _6
REMARK    3  A    between atoms: _5  and  _8
REMARK    4  A    between atoms: _8  and  _9
REMARK    5  A    between atoms: _12  and  _13
REMARK    6  A    between atoms: _18  and  _20
REMARK    7  A    between atoms: _20  and  _21
REMARK    8  A    between atoms: _20  and  _23
REMARK    9  A    between atoms: _23  and  _24
REMARK   10  A    between atoms: _24  and  _25
REMARK   11  A    between atoms: _28  and  _30
REMARK   12  A    between atoms: _30  and  _31
REMARK   13  A    between atoms: _30  and  _33
REMARK   14  A    between atoms: _33  and  _34
REMARK   15  A    between atoms: _37  and  _39
REMARK   16  A    between atoms: _39  and  _40
REMARK   17  A    between atoms: _42  and  _44
REMARK   18  A    between atoms: _44  and  _45
REMARK   19  A    between atoms: _44  and  _47
REMARK   20  A    between atoms: _47  and  _48
REMARK   21  A    between atoms: _54  and  _56
REMARK   22  A    between atoms: _56  and  _57
REMARK   23  A    between atoms: _56  and  _59
REMARK   24  A    between atoms: _59  and  _60
REMARK   25  A    between atoms: _62  and  _64
REMARK   26  A    between atoms: _64  and  _65
REMARK   27  A    between atoms: _64  and  _67
REMARK   28  A    between atoms: _67  and  _68
REMARK   29  A    between atoms: _71  and  _73
REMARK   30  A    between atoms: _73  and  _74
REMARK   31  A    between atoms: _73  and  _76
REMARK   32  A    between atoms: _76  and  _77
REMARK   33  A    between atoms: _79  and  _81
REMARK   34  A    between atoms: _81  and  _82
REMARK   35  A    between atoms: _84  and  _86
REMARK   36  A    between atoms: _86  and  _87
REMARK   37  A    between atoms: _89  and  _91
REMARK   38  A    between atoms: _91  and  _92
REMARK   39  A    between atoms: _94  and  _96
REMARK   40  A    between atoms: _96  and  _97
REMARK   41  A    between atoms: _96  and  _99
REMARK   42  A    between atoms: _99  and  _100
REMARK   43  A    between atoms: _100  and  _101
REMARK   44  A    between atoms: _101  and  _102
REMARK   45  A    between atoms: _111  and  _113
REMARK   46  A    between atoms: _113  and  _114
REMARK   47  A    between atoms: _116  and  _118
REMARK   48  A    between atoms: _118  and  _119
REMARK   49  A    between atoms: _118  and  _121
REMARK   50  A    between atoms: _121  and  _122
REMARK   51  A    between atoms: _128  and  _129
REMARK   52  A    between atoms: _134  and  _136
REMARK   53  A    between atoms: _136  and  _137
REMARK   54  A    between atoms: _136  and  _139
REMARK   55  A    between atoms: _139  and  _140
REMARK   56  A    between atoms: _146  and  _148
REMARK   57  A    between atoms: _148  and  _149
REMARK   58  A    between atoms: _148  and  _151
REMARK   59  A    between atoms: _151  and  _152
REMARK   60  A    between atoms: _155  and  _157
REMARK   61  A    between atoms: _157  and  _158
REMARK   62  A    between atoms: _157  and  _160
REMARK   63  A    between atoms: _160  and  _161
REMARK   64  A    between atoms: _167  and  _169
REMARK   65  A    between atoms: _169  and  _170
REMARK   66  A    between atoms: _169  and  _172
REMARK   67  A    between atoms: _175  and  _177
REMARK   68  A    between atoms: _177  and  _178
REMARK   69  A    between atoms: _177  and  _180
REMARK   70  A    between atoms: _180  and  _181
REMARK   71  A    between atoms: _184  and  _186
REMARK   72  A    between atoms: _186  and  _187
REMARK   73  A    between atoms: _186  and  _189
REMARK   74  A    between atoms: _189  and  _190
REMARK   75  A    between atoms: _190  and  _191
REMARK   76  A    between atoms: _191  and  _192
REMARK   77  A    between atoms: _201  and  _203
REMARK   78  A    between atoms: _203  and  _204
REMARK   79  A    between atoms: _203  and  _206
REMARK   80  A    between atoms: _209  and  _211
REMARK   81  A    between atoms: _211  and  _212
REMARK   82  A    between atoms: _211  and  _214
REMARK   83  A    between atoms: _214  and  _215
REMARK   84  A    between atoms: _215  and  _216
REMARK   85  A    between atoms: _222  and  _223
REMARK   86  A    between atoms: _229  and  _230
REMARK   87  A    between atoms: _235  and  _237
REMARK   88  A    between atoms: _237  and  _238
REMARK   89  A    between atoms: _241  and  _243
REMARK   90  A    between atoms: _243  and  _244
REMARK   91  A    between atoms: _243  and  _246
REMARK   92  A    between atoms: _246  and  _247
REMARK   93  A    between atoms: _250  and  _252
REMARK   94  A    between atoms: _252  and  _253
REMARK   95  A    between atoms: _252  and  _255
REMARK   96  A    between atoms: _255  and  _256
REMARK   97  A    between atoms: _259  and  _261
REMARK   98  A    between atoms: _261  and  _262
REMARK   99  A    between atoms: _261  and  _264
REMARK  100  A    between atoms: _264  and  _265
REMARK  101  A    between atoms: _271  and  _273
REMARK  102  A    between atoms: _273  and  _274
REMARK  103  A    between atoms: _273  and  _276
REMARK  104  A    between atoms: _276  and  _277
REMARK  105  A    between atoms: _282  and  _284
REMARK  106  A    between atoms: _284  and  _285
REMARK  107  A    between atoms: _287  and  _289
REMARK  108  A    between atoms: _289  and  _290
REMARK  109  A    between atoms: _293  and  _295
REMARK  110  A    between atoms: _295  and  _296
REMARK  111  A    between atoms: _295  and  _298
REMARK  112  A    between atoms: _301  and  _303
REMARK  113  A    between atoms: _303  and  _304
REMARK  114  A    between atoms: _303  and  _306
REMARK  115  A    between atoms: _306  and  _307
REMARK  116  A    between atoms: _309  and  _311
REMARK  117  A    between atoms: _311  and  _312
REMARK  118  A    between atoms: _311  and  _314
REMARK  119  A    between atoms: _314  and  _315
REMARK  120  A    between atoms: _318  and  _320
REMARK  121  A    between atoms: _320  and  _321
REMARK  122  A    between atoms: _320  and  _323
REMARK  123  A    between atoms: _323  and  _324
REMARK  124  A    between atoms: _327  and  _329
REMARK  125  A    between atoms: _329  and  _330
REMARK  126  A    between atoms: _329  and  _332
REMARK  127  A    between atoms: _332  and  _333
REMARK  128  A    between atoms: _333  and  _334
REMARK  129  A    between atoms: _334  and  _335
REMARK  130  A    between atoms: _335  and  _336
REMARK  131  A    between atoms: _340  and  _342
REMARK  132  A    between atoms: _342  and  _343
REMARK  133  A    between atoms: _342  and  _345
REMARK  134  A    between atoms: _345  and  _346
REMARK  135  A    between atoms: _349  and  _351
REMARK  136  A    between atoms: _351  and  _352
REMARK  137  A    between atoms: _351  and  _354
REMARK  138  A    between atoms: _354  and  _355
REMARK  139  A    between atoms: _361  and  _363
REMARK  140  A    between atoms: _363  and  _364
REMARK  141  A    between atoms: _363  and  _366
REMARK  142  A    between atoms: _369  and  _371
REMARK  143  A    between atoms: _371  and  _372
REMARK  144  A    between atoms: _371  and  _374
REMARK  145  A    between atoms: _374  and  _375
REMARK  146  A    between atoms: _378  and  _380
REMARK  147  A    between atoms: _380  and  _381
REMARK  148  A    between atoms: _380  and  _383
REMARK  149  A    between atoms: _386  and  _388
REMARK  150  A    between atoms: _388  and  _389
REMARK  151  A    between atoms: _388  and  _391
REMARK  152  A    between atoms: _391  and  _392
REMARK  153  A    between atoms: _392  and  _393
REMARK  154  A    between atoms: _393  and  _394
REMARK  155  A    between atoms: _394  and  _395
REMARK  156  A    between atoms: _399  and  _401
REMARK  157  A    between atoms: _401  and  _402
REMARK  158  A    between atoms: _401  and  _404
REMARK  159  A    between atoms: _404  and  _405
REMARK  160  A    between atoms: _408  and  _410
REMARK  161  A    between atoms: _410  and  _411
REMARK  162  A    between atoms: _410  and  _413
REMARK  163  A    between atoms: _413  and  _414
REMARK  164  A    between atoms: _419  and  _420
REMARK  165  A    between atoms: _422  and  _424
REMARK  166  A    between atoms: _424  and  _425
REMARK  167  A    between atoms: _424  and  _427
REMARK  168  A    between atoms: _427  and  _428
REMARK  169  A    between atoms: _433  and  _434
REMARK  170  A    between atoms: _436  and  _438
REMARK  171  A    between atoms: _438  and  _439
REMARK  172  A    between atoms: _441  and  _443
REMARK  173  A    between atoms: _443  and  _444
REMARK  174  A    between atoms: _443  and  _446
REMARK  175  A    between atoms: _449  and  _451
REMARK  176  A    between atoms: _451  and  _452
REMARK  177  A    between atoms: _451  and  _454
REMARK  178  A    between atoms: _454  and  _455
REMARK  179  A    between atoms: _457  and  _459
REMARK  180  A    between atoms: _459  and  _460
REMARK  181  A    between atoms: _459  and  _462
REMARK  182  A    between atoms: _462  and  _463
REMARK  183  A    between atoms: _468  and  _469
REMARK  184  A    between atoms: _471  and  _473
REMARK  185  A    between atoms: _473  and  _474
REMARK  186  A    between atoms: _473  and  _476
REMARK  187  A    between atoms: _476  and  _477
REMARK  188  A    between atoms: _482  and  _483
REMARK  189  A    between atoms: _485  and  _487
REMARK  190  A    between atoms: _487  and  _488
REMARK  191  A    between atoms: _487  and  _490
REMARK  192  A    between atoms: _490  and  _491
REMARK  193  A    between atoms: _494  and  _496
REMARK  194  A    between atoms: _496  and  _497
REMARK  195  A    between atoms: _496  and  _499
REMARK  196  A    between atoms: _503  and  _504
REMARK  197  A    between atoms: _509  and  _511
REMARK  198  A    between atoms: _511  and  _512
REMARK  199  A    between atoms: _511  and  _514
REMARK  200  A    between atoms: _514  and  _515
REMARK  201  A    between atoms: _520  and  _521
REMARK  202  A    between atoms: _523  and  _525
REMARK  203  A    between atoms: _525  and  _526
REMARK  204  A    between atoms: _525  and  _528
REMARK  205  A    between atoms: _528  and  _529
REMARK  206  A    between atoms: _534  and  _535
REMARK  207  A    between atoms: _537  and  _539
REMARK  208  A    between atoms: _539  and  _540
REMARK  209  A    between atoms: _539  and  _542
REMARK  210  A    between atoms: _542  and  _543
REMARK  211  A    between atoms: _545  and  _547
REMARK  212  A    between atoms: _547  and  _548
REMARK  213  A    between atoms: _547  and  _550
REMARK  214  A    between atoms: _550  and  _551
REMARK  215  A    between atoms: _554  and  _556
REMARK  216  A    between atoms: _556  and  _557
REMARK  217  A    between atoms: _556  and  _559
REMARK  218  A    between atoms: _559  and  _560
REMARK  219  A    between atoms: _565  and  _566
REMARK  220  A    between atoms: _568  and  _570
REMARK  221  A    between atoms: _570  and  _571
REMARK  222  A    between atoms: _570  and  _573
REMARK  223  A    between atoms: _573  and  _574
REMARK  224  A    between atoms: _579  and  _580
REMARK  225  A    between atoms: _582  and  _584
REMARK  226  A    between atoms: _584  and  _585
REMARK  227  A    between atoms: _587  and  _589
REMARK  228  A    between atoms: _589  and  _590
REMARK  229  A    between atoms: _589  and  _592
REMARK  230  A    between atoms: _592  and  _593
REMARK  231  A    between atoms: _595  and  _597
REMARK  232  A    between atoms: _597  and  _598
REMARK  233  A    between atoms: _597  and  _600
REMARK  234  A    between atoms: _600  and  _601
REMARK  235  A    between atoms: _606  and  _608
REMARK  236  A    between atoms: _608  and  _609
REMARK  237  A    between atoms: _608  and  _611
REMARK  238  A    between atoms: _611  and  _612
REMARK  239  A    between atoms: _617  and  _618
REMARK                            x       y       z     vdW  Elec       q    Type
REMARK                         _______ _______ _______ _____ _____    ______ ____
ROOT
ATOM      1  O   HOH     1      -4.347 -13.831 -14.368  0.00  0.00    +0.000 OA
ENDROOT
TORSDOF 0
REMARK  Name = ../refined-set-2016/2qbw/2qbw_pocket.pdb
REMARK  239 active torsions:
REMARK  status: ('A' for Active; 'I' for Inactive)
REMARK    1  A    between atoms: _1  and  _5
REMARK    2  A    between atoms: _5  and  _6
REMARK    3  A    between atoms: _5  and  _8
REMARK    4  A    between atoms: _8  and  _9
REMARK    5  A    between atoms: _12  and  _13
REMARK    6  A    between atoms: _18  and  _20
REMARK    7  A    between atoms: _20  and  _21
REMARK    8  A    between atoms: _20  and  _23
REMARK    9  A    between atoms: _23  and  _24
REMARK   10  A    between atoms: _24  and  _25
REMARK   11  A    between atoms: _28  and  _30
REMARK   12  A    between atoms: _30  and  _31
REMARK   13  A    between atoms: _30  and  _33
REMARK   14  A    between atoms: _33  and  _34
REMARK   15  A    between atoms: _37  and  _39
REMARK   16  A    between atoms: _39  and  _40
REMARK   17  A    between atoms: _42  and  _44
REMARK   18  A    between atoms: _44  and  _45
REMARK   19  A    between atoms: _44  and  _47
REMARK   20  A    between atoms: _47  and  _48
REMARK   21  A    between atoms: _54  and  _56
REMARK   22  A    between atoms: _56  and  _57
REMARK   23  A    between atoms: _56  and  _59
REMARK   24  A    between atoms: _59  and  _60
REMARK   25  A    between atoms: _62  and  _64
REMARK   26  A    between atoms: _64  and  _65
REMARK   27  A    between atoms: _64  and  _67
REMARK   28  A    between atoms: _67  and  _68
REMARK   29  A    between atoms: _71  and  _73
REMARK   30  A    between atoms: _73  and  _74
REMARK   31  A    between atoms: _73  and  _76
REMARK   32  A    between atoms: _76  and  _77
REMARK   33  A    between atoms: _79  and  _81
REMARK   34  A    between atoms: _81  and  _82
REMARK   35  A    between atoms: _84  and  _86
REMARK   36  A    between atoms: _86  and  _87
REMARK   37  A    between atoms: _89  and  _91
REMARK   38  A    between atoms: _91  and  _92
REMARK   39  A    between atoms: _94  and  _96
REMARK   40  A    between atoms: _96  and  _97
REMARK   41  A    between atoms: _96  and  _99
REMARK   42  A    between atoms: _99  and  _100
REMARK   43  A    between atoms: _100  and  _101
REMARK   44  A    between atoms: _101  and  _102
REMARK   45  A    between atoms: _111  and  _113
REMARK   46  A    between atoms: _113  and  _114
REMARK   47  A    between atoms: _116  and  _118
REMARK   48  A    between atoms: _118  and  _119
REMARK   49  A    between atoms: _118  and  _121
REMARK   50  A    between atoms: _121  and  _122
REMARK   51  A    between atoms: _128  and  _129
REMARK   52  A    between atoms: _134  and  _136
REMARK   53  A    between atoms: _136  and  _137
REMARK   54  A    between atoms: _136  and  _139
REMARK   55  A    between atoms: _139  and  _140
REMARK   56  A    between atoms: _146  and  _148
REMARK   57  A    between atoms: _148  and  _149
REMARK   58  A    between atoms: _148  and  _151
REMARK   59  A    between atoms: _151  and  _152
REMARK   60  A    between atoms: _155  and  _157
REMARK   61  A    between atoms: _157  and  _158
REMARK   62  A    between atoms: _157  and  _160
REMARK   63  A    between atoms: _160  and  _161
REMARK   64  A    between atoms: _167  and  _169
REMARK   65  A    between atoms: _169  and  _170
REMARK   66  A    between atoms: _169  and  _172
REMARK   67  A    between atoms: _175  and  _177
REMARK   68  A    between atoms: _177  and  _178
REMARK   69  A    between atoms: _177  and  _180
REMARK   70  A    between atoms: _180  and  _181
REMARK   71  A    between atoms: _184  and  _186
REMARK   72  A    between atoms: _186  and  _187
REMARK   73  A    between atoms: _186  and  _189
REMARK   74  A    between atoms: _189  and  _190
REMARK   75  A    between atoms: _190  and  _191
REMARK   76  A    between atoms: _191  and  _192
REMARK   77  A    between atoms: _201  and  _203
REMARK   78  A    between atoms: _203  and  _204
REMARK   79  A    between atoms: _203  and  _206
REMARK   80  A    between atoms: _209  and  _211
REMARK   81  A    between atoms: _211  and  _212
REMARK   82  A    between atoms: _211  and  _214
REMARK   83  A    between atoms: _214  and  _215
REMARK   84  A    between atoms: _215  and  _216
REMARK   85  A    between atoms: _222  and  _223
REMARK   86  A    between atoms: _229  and  _230
REMARK   87  A    between atoms: _235  and  _237
REMARK   88  A    between atoms: _237  and  _238
REMARK   89  A    between atoms: _241  and  _243
REMARK   90  A    between atoms: _243  and  _244
REMARK   91  A    between atoms: _243  and  _246
REMARK   92  A    between atoms: _246  and  _247
REMARK   93  A    between atoms: _250  and  _252
REMARK   94  A    between atoms: _252  and  _253
REMARK   95  A    between atoms: _252  and  _255
REMARK   96  A    between atoms: _255  and  _256
REMARK   97  A    between atoms: _259  and  _261
REMARK   98  A    between atoms: _261  and  _262
REMARK   99  A    between atoms: _261  and  _264
REMARK  100  A    between atoms: _264  and  _265
REMARK  101  A    between atoms: _271  and  _273
REMARK  102  A    between atoms: _273  and  _274
REMARK  103  A    between atoms: _273  and  _276
REMARK  104  A    between atoms: _276  and  _277
REMARK  105  A    between atoms: _282  and  _284
REMARK  106  A    between atoms: _284  and  _285
REMARK  107  A    between atoms: _287  and  _289
REMARK  108  A    between atoms: _289  and  _290
REMARK  109  A    between atoms: _293  and  _295
REMARK  110  A    between atoms: _295  and  _296
REMARK  111  A    between atoms: _295  and  _298
REMARK  112  A    between atoms: _301  and  _303
REMARK  113  A    between atoms: _303  and  _304
REMARK  114  A    between atoms: _303  and  _306
REMARK  115  A    between atoms: _306  and  _307
REMARK  116  A    between atoms: _309  and  _311
REMARK  117  A    between atoms: _311  and  _312
REMARK  118  A    between atoms: _311  and  _314
REMARK  119  A    between atoms: _314  and  _315
REMARK  120  A    between atoms: _318  and  _320
REMARK  121  A    between atoms: _320  and  _321
REMARK  122  A    between atoms: _320  and  _323
REMARK  123  A    between atoms: _323  and  _324
REMARK  124  A    between atoms: _327  and  _329
REMARK  125  A    between atoms: _329  and  _330
REMARK  126  A    between atoms: _329  and  _332
REMARK  127  A    between atoms: _332  and  _333
REMARK  128  A    between atoms: _333  and  _334
REMARK  129  A    between atoms: _334  and  _335
REMARK  130  A    between atoms: _335  and  _336
REMARK  131  A    between atoms: _340  and  _342
REMARK  132  A    between atoms: _342  and  _343
REMARK  133  A    between atoms: _342  and  _345
REMARK  134  A    between atoms: _345  and  _346
REMARK  135  A    between atoms: _349  and  _351
REMARK  136  A    between atoms: _351  and  _352
REMARK  137  A    between atoms: _351  and  _354
REMARK  138  A    between atoms: _354  and  _355
REMARK  139  A    between atoms: _361  and  _363
REMARK  140  A    between atoms: _363  and  _364
REMARK  141  A    between atoms: _363  and  _366
REMARK  142  A    between atoms: _369  and  _371
REMARK  143  A    between atoms: _371  and  _372
REMARK  144  A    between atoms: _371  and  _374
REMARK  145  A    between atoms: _374  and  _375
REMARK  146  A    between atoms: _378  and  _380
REMARK  147  A    between atoms: _380  and  _381
REMARK  148  A    between atoms: _380  and  _383
REMARK  149  A    between atoms: _386  and  _388
REMARK  150  A    between atoms: _388  and  _389
REMARK  151  A    between atoms: _388  and  _391
REMARK  152  A    between atoms: _391  and  _392
REMARK  153  A    between atoms: _392  and  _393
REMARK  154  A    between atoms: _393  and  _394
REMARK  155  A    between atoms: _394  and  _395
REMARK  156  A    between atoms: _399  and  _401
REMARK  157  A    between atoms: _401  and  _402
REMARK  158  A    between atoms: _401  and  _404
REMARK  159  A    between atoms: _404  and  _405
REMARK  160  A    between atoms: _408  and  _410
REMARK  161  A    between atoms: _410  and  _411
REMARK  162  A    between atoms: _410  and  _413
REMARK  163  A    between atoms: _413  and  _414
REMARK  164  A    between atoms: _419  and  _420
REMARK  165  A    between atoms: _422  and  _424
REMARK  166  A    between atoms: _424  and  _425
REMARK  167  A    between atoms: _424  and  _427
REMARK  168  A    between atoms: _427  and  _428
REMARK  169  A    between atoms: _433  and  _434
REMARK  170  A    between atoms: _436  and  _438
REMARK  171  A    between atoms: _438  and  _439
REMARK  172  A    between atoms: _441  and  _443
REMARK  173  A    between atoms: _443  and  _444
REMARK  174  A    between atoms: _443  and  _446
REMARK  175  A    between atoms: _449  and  _451
REMARK  176  A    between atoms: _451  and  _452
REMARK  177  A    between atoms: _451  and  _454
REMARK  178  A    between atoms: _454  and  _455
REMARK  179  A    between atoms: _457  and  _459
REMARK  180  A    between atoms: _459  and  _460
REMARK  181  A    between atoms: _459  and  _462
REMARK  182  A    between atoms: _462  and  _463
REMARK  183  A    between atoms: _468  and  _469
REMARK  184  A    between atoms: _471  and  _473
REMARK  185  A    between atoms: _473  and  _474
REMARK  186  A    between atoms: _473  and  _476
REMARK  187  A    between atoms: _476  and  _477
REMARK  188  A    between atoms: _482  and  _483
REMARK  189  A    between atoms: _485  and  _487
REMARK  190  A    between atoms: _487  and  _488
REMARK  191  A    between atoms: _487  and  _490
REMARK  192  A    between atoms: _490  and  _491
REMARK  193  A    between atoms: _494  and  _496
REMARK  194  A    between atoms: _496  and  _497
REMARK  195  A    between atoms: _496  and  _499
REMARK  196  A    between atoms: _503  and  _504
REMARK  197  A    between atoms: _509  and  _511
REMARK  198  A    between atoms: _511  and  _512
REMARK  199  A    between atoms: _511  and  _514
REMARK  200  A    between atoms: _514  and  _515
REMARK  201  A    between atoms: _520  and  _521
REMARK  202  A    between atoms: _523  and  _525
REMARK  203  A    between atoms: _525  and  _526
REMARK  204  A    between atoms: _525  and  _528
REMARK  205  A    between atoms: _528  and  _529
REMARK  206  A    between atoms: _534  and  _535
REMARK  207  A    between atoms: _537  and  _539
REMARK  208  A    between atoms: _539  and  _540
REMARK  209  A    between atoms: _539  and  _542
REMARK  210  A    between atoms: _542  and  _543
REMARK  211  A    between atoms: _545  and  _547
REMARK  212  A    between atoms: _547  and  _548
REMARK  213  A    between atoms: _547  and  _550
REMARK  214  A    between atoms: _550  and  _551
REMARK  215  A    between atoms: _554  and  _556
REMARK  216  A    between atoms: _556  and  _557
REMARK  217  A    between atoms: _556  and  _559
REMARK  218  A    between atoms: _559  and  _560
REMARK  219  A    between atoms: _565  and  _566
REMARK  220  A    between atoms: _568  and  _570
REMARK  221  A    between atoms: _570  and  _571
REMARK  222  A    between atoms: _570  and  _573
REMARK  223  A    between atoms: _573  and  _574
REMARK  224  A    between atoms: _579  and  _580
REMARK  225  A    between atoms: _582  and  _584
REMARK  226  A    between atoms: _584  and  _585
REMARK  227  A    between atoms: _587  and  _589
REMARK  228  A    between atoms: _589  and  _590
REMARK  229  A    between atoms: _589  and  _592
REMARK  230  A    between atoms: _592  and  _593
REMARK  231  A    between atoms: _595  and  _597
REMARK  232  A    between atoms: _597  and  _598
REMARK  233  A    between atoms: _597  and  _600
REMARK  234  A    between atoms: _600  and  _601
REMARK  235  A    between atoms: _606  and  _608
REMARK  236  A    between atoms: _608  and  _609
REMARK  237  A    between atoms: _608  and  _611
REMARK  238  A    between atoms: _611  and  _612
REMARK  239  A    between atoms: _617  and  _618
REMARK                            x       y       z     vdW  Elec       q    Type
REMARK                         _______ _______ _______ _____ _____    ______ ____
ROOT
ATOM      1  O   HOH     1       6.033 -14.559 -11.093  0.00  0.00    +0.000 OA
ENDROOT
TORSDOF 0
REMARK  Name = ../refined-set-2016/2qbw/2qbw_pocket.pdb
REMARK  239 active torsions:
REMARK  status: ('A' for Active; 'I' for Inactive)
REMARK    1  A    between atoms: _1  and  _5
REMARK    2  A    between atoms: _5  and  _6
REMARK    3  A    between atoms: _5  and  _8
REMARK    4  A    between atoms: _8  and  _9
REMARK    5  A    between atoms: _12  and  _13
REMARK    6  A    between atoms: _18  and  _20
REMARK    7  A    between atoms: _20  and  _21
REMARK    8  A    between atoms: _20  and  _23
REMARK    9  A    between atoms: _23  and  _24
REMARK   10  A    between atoms: _24  and  _25
REMARK   11  A    between atoms: _28  and  _30
REMARK   12  A    between atoms: _30  and  _31
REMARK   13  A    between atoms: _30  and  _33
REMARK   14  A    between atoms: _33  and  _34
REMARK   15  A    between atoms: _37  and  _39
REMARK   16  A    between atoms: _39  and  _40
REMARK   17  A    between atoms: _42  and  _44
REMARK   18  A    between atoms: _44  and  _45
REMARK   19  A    between atoms: _44  and  _47
REMARK   20  A    between atoms: _47  and  _48
REMARK   21  A    between atoms: _54  and  _56
REMARK   22  A    between atoms: _56  and  _57
REMARK   23  A    between atoms: _56  and  _59
REMARK   24  A    between atoms: _59  and  _60
REMARK   25  A    between atoms: _62  and  _64
REMARK   26  A    between atoms: _64  and  _65
REMARK   27  A    between atoms: _64  and  _67
REMARK   28  A    between atoms: _67  and  _68
REMARK   29  A    between atoms: _71  and  _73
REMARK   30  A    between atoms: _73  and  _74
REMARK   31  A    between atoms: _73  and  _76
REMARK   32  A    between atoms: _76  and  _77
REMARK   33  A    between atoms: _79  and  _81
REMARK   34  A    between atoms: _81  and  _82
REMARK   35  A    between atoms: _84  and  _86
REMARK   36  A    between atoms: _86  and  _87
REMARK   37  A    between atoms: _89  and  _91
REMARK   38  A    between atoms: _91  and  _92
REMARK   39  A    between atoms: _94  and  _96
REMARK   40  A    between atoms: _96  and  _97
REMARK   41  A    between atoms: _96  and  _99
REMARK   42  A    between atoms: _99  and  _100
REMARK   43  A    between atoms: _100  and  _101
REMARK   44  A    between atoms: _101  and  _102
REMARK   45  A    between atoms: _111  and  _113
REMARK   46  A    between atoms: _113  and  _114
REMARK   47  A    between atoms: _116  and  _118
REMARK   48  A    between atoms: _118  and  _119
REMARK   49  A    between atoms: _118  and  _121
REMARK   50  A    between atoms: _121  and  _122
REMARK   51  A    between atoms: _128  and  _129
REMARK   52  A    between atoms: _134  and  _136
REMARK   53  A    between atoms: _136  and  _137
REMARK   54  A    between atoms: _136  and  _139
REMARK   55  A    between atoms: _139  and  _140
REMARK   56  A    between atoms: _146  and  _148
REMARK   57  A    between atoms: _148  and  _149
REMARK   58  A    between atoms: _148  and  _151
REMARK   59  A    between atoms: _151  and  _152
REMARK   60  A    between atoms: _155  and  _157
REMARK   61  A    between atoms: _157  and  _158
REMARK   62  A    between atoms: _157  and  _160
REMARK   63  A    between atoms: _160  and  _161
REMARK   64  A    between atoms: _167  and  _169
REMARK   65  A    between atoms: _169  and  _170
REMARK   66  A    between atoms: _169  and  _172
REMARK   67  A    between atoms: _175  and  _177
REMARK   68  A    between atoms: _177  and  _178
REMARK   69  A    between atoms: _177  and  _180
REMARK   70  A    between atoms: _180  and  _181
REMARK   71  A    between atoms: _184  and  _186
REMARK   72  A    between atoms: _186  and  _187
REMARK   73  A    between atoms: _186  and  _189
REMARK   74  A    between atoms: _189  and  _190
REMARK   75  A    between atoms: _190  and  _191
REMARK   76  A    between atoms: _191  and  _192
REMARK   77  A    between atoms: _201  and  _203
REMARK   78  A    between atoms: _203  and  _204
REMARK   79  A    between atoms: _203  and  _206
REMARK   80  A    between atoms: _209  and  _211
REMARK   81  A    between atoms: _211  and  _212
REMARK   82  A    between atoms: _211  and  _214
REMARK   83  A    between atoms: _214  and  _215
REMARK   84  A    between atoms: _215  and  _216
REMARK   85  A    between atoms: _222  and  _223
REMARK   86  A    between atoms: _229  and  _230
REMARK   87  A    between atoms: _235  and  _237
REMARK   88  A    between atoms: _237  and  _238
REMARK   89  A    between atoms: _241  and  _243
REMARK   90  A    between atoms: _243  and  _244
REMARK   91  A    between atoms: _243  and  _246
REMARK   92  A    between atoms: _246  and  _247
REMARK   93  A    between atoms: _250  and  _252
REMARK   94  A    between atoms: _252  and  _253
REMARK   95  A    between atoms: _252  and  _255
REMARK   96  A    between atoms: _255  and  _256
REMARK   97  A    between atoms: _259  and  _261
REMARK   98  A    between atoms: _261  and  _262
REMARK   99  A    between atoms: _261  and  _264
REMARK  100  A    between atoms: _264  and  _265
REMARK  101  A    between atoms: _271  and  _273
REMARK  102  A    between atoms: _273  and  _274
REMARK  103  A    between atoms: _273  and  _276
REMARK  104  A    between atoms: _276  and  _277
REMARK  105  A    between atoms: _282  and  _284
REMARK  106  A    between atoms: _284  and  _285
REMARK  107  A    between atoms: _287  and  _289
REMARK  108  A    between atoms: _289  and  _290
REMARK  109  A    between atoms: _293  and  _295
REMARK  110  A    between atoms: _295  and  _296
REMARK  111  A    between atoms: _295  and  _298
REMARK  112  A    between atoms: _301  and  _303
REMARK  113  A    between atoms: _303  and  _304
REMARK  114  A    between atoms: _303  and  _306
REMARK  115  A    between atoms: _306  and  _307
REMARK  116  A    between atoms: _309  and  _311
REMARK  117  A    between atoms: _311  and  _312
REMARK  118  A    between atoms: _311  and  _314
REMARK  119  A    between atoms: _314  and  _315
REMARK  120  A    between atoms: _318  and  _320
REMARK  121  A    between atoms: _320  and  _321
REMARK  122  A    between atoms: _320  and  _323
REMARK  123  A    between atoms: _323  and  _324
REMARK  124  A    between atoms: _327  and  _329
REMARK  125  A    between atoms: _329  and  _330
REMARK  126  A    between atoms: _329  and  _332
REMARK  127  A    between atoms: _332  and  _333
REMARK  128  A    between atoms: _333  and  _334
REMARK  129  A    between atoms: _334  and  _335
REMARK  130  A    between atoms: _335  and  _336
REMARK  131  A    between atoms: _340  and  _342
REMARK  132  A    between atoms: _342  and  _343
REMARK  133  A    between atoms: _342  and  _345
REMARK  134  A    between atoms: _345  and  _346
REMARK  135  A    between atoms: _349  and  _351
REMARK  136  A    between atoms: _351  and  _352
REMARK  137  A    between atoms: _351  and  _354
REMARK  138  A    between atoms: _354  and  _355
REMARK  139  A    between atoms: _361  and  _363
REMARK  140  A    between atoms: _363  and  _364
REMARK  141  A    between atoms: _363  and  _366
REMARK  142  A    between atoms: _369  and  _371
REMARK  143  A    between atoms: _371  and  _372
REMARK  144  A    between atoms: _371  and  _374
REMARK  145  A    between atoms: _374  and  _375
REMARK  146  A    between atoms: _378  and  _380
REMARK  147  A    between atoms: _380  and  _381
REMARK  148  A    between atoms: _380  and  _383
REMARK  149  A    between atoms: _386  and  _388
REMARK  150  A    between atoms: _388  and  _389
REMARK  151  A    between atoms: _388  and  _391
REMARK  152  A    between atoms: _391  and  _392
REMARK  153  A    between atoms: _392  and  _393
REMARK  154  A    between atoms: _393  and  _394
REMARK  155  A    between atoms: _394  and  _395
REMARK  156  A    between atoms: _399  and  _401
REMARK  157  A    between atoms: _401  and  _402
REMARK  158  A    between atoms: _401  and  _404
REMARK  159  A    between atoms: _404  and  _405
REMARK  160  A    between atoms: _408  and  _410
REMARK  161  A    between atoms: _410  and  _411
REMARK  162  A    between atoms: _410  and  _413
REMARK  163  A    between atoms: _413  and  _414
REMARK  164  A    between atoms: _419  and  _420
REMARK  165  A    between atoms: _422  and  _424
REMARK  166  A    between atoms: _424  and  _425
REMARK  167  A    between atoms: _424  and  _427
REMARK  168  A    between atoms: _427  and  _428
REMARK  169  A    between atoms: _433  and  _434
REMARK  170  A    between atoms: _436  and  _438
REMARK  171  A    between atoms: _438  and  _439
REMARK  172  A    between atoms: _441  and  _443
REMARK  173  A    between atoms: _443  and  _444
REMARK  174  A    between atoms: _443  and  _446
REMARK  175  A    between atoms: _449  and  _451
REMARK  176  A    between atoms: _451  and  _452
REMARK  177  A    between atoms: _451  and  _454
REMARK  178  A    between atoms: _454  and  _455
REMARK  179  A    between atoms: _457  and  _459
REMARK  180  A    between atoms: _459  and  _460
REMARK  181  A    between atoms: _459  and  _462
REMARK  182  A    between atoms: _462  and  _463
REMARK  183  A    between atoms: _468  and  _469
REMARK  184  A    between atoms: _471  and  _473
REMARK  185  A    between atoms: _473  and  _474
REMARK  186  A    between atoms: _473  and  _476
REMARK  187  A    between atoms: _476  and  _477
REMARK  188  A    between atoms: _482  and  _483
REMARK  189  A    between atoms: _485  and  _487
REMARK  190  A    between atoms: _487  and  _488
REMARK  191  A    between atoms: _487  and  _490
REMARK  192  A    between atoms: _490  and  _491
REMARK  193  A    between atoms: _494  and  _496
REMARK  194  A    between atoms: _496  and  _497
REMARK  195  A    between atoms: _496  and  _499
REMARK  196  A    between atoms: _503  and  _504
REMARK  197  A    between atoms: _509  and  _511
REMARK  198  A    between atoms: _511  and  _512
REMARK  199  A    between atoms: _511  and  _514
REMARK  200  A    between atoms: _514  and  _515
REMARK  201  A    between atoms: _520  and  _521
REMARK  202  A    between atoms: _523  and  _525
REMARK  203  A    between atoms: _525  and  _526
REMARK  204  A    between atoms: _525  and  _528
REMARK  205  A    between atoms: _528  and  _529
REMARK  206  A    between atoms: _534  and  _535
REMARK  207  A    between atoms: _537  and  _539
REMARK  208  A    between atoms: _539  and  _540
REMARK  209  A    between atoms: _539  and  _542
REMARK  210  A    between atoms: _542  and  _543
REMARK  211  A    between atoms: _545  and  _547
REMARK  212  A    between atoms: _547  and  _548
REMARK  213  A    between atoms: _547  and  _550
REMARK  214  A    between atoms: _550  and  _551
REMARK  215  A    between atoms: _554  and  _556
REMARK  216  A    between atoms: _556  and  _557
REMARK  217  A    between atoms: _556  and  _559
REMARK  218  A    between atoms: _559  and  _560
REMARK  219  A    between atoms: _565  and  _566
REMARK  220  A    between atoms: _568  and  _570
REMARK  221  A    between atoms: _570  and  _571
REMARK  222  A    between atoms: _570  and  _573
REMARK  223  A    between atoms: _573  and  _574
REMARK  224  A    between atoms: _579  and  _580
REMARK  225  A    between atoms: _582  and  _584
REMARK  226  A    between atoms: _584  and  _585
REMARK  227  A    between atoms: _587  and  _589
REMARK  228  A    between atoms: _589  and  _590
REMARK  229  A    between atoms: _589  and  _592
REMARK  230  A    between atoms: _592  and  _593
REMARK  231  A    between atoms: _595  and  _597
REMARK  232  A    between atoms: _597  and  _598
REMARK  233  A    between atoms: _597  and  _600
REMARK  234  A    between atoms: _600  and  _601
REMARK  235  A    between atoms: _606  and  _608
REMARK  236  A    between atoms: _608  and  _609
REMARK  237  A    between atoms: _608  and  _611
REMARK  238  A    between atoms: _611  and  _612
REMARK  239  A    between atoms: _617  and  _618
REMARK                            x       y       z     vdW  Elec       q    Type
REMARK                         _______ _______ _______ _____ _____    ______ ____
ROOT
ATOM      1  O   HOH     1      -1.245  -9.270  -6.674  0.00  0.00    +0.000 OA
ENDROOT
TORSDOF 0
REMARK  Name = ../refined-set-2016/2qbw/2qbw_pocket.pdb
REMARK  239 active torsions:
REMARK  status: ('A' for Active; 'I' for Inactive)
REMARK    1  A    between atoms: _1  and  _5
REMARK    2  A    between atoms: _5  and  _6
REMARK    3  A    between atoms: _5  and  _8
REMARK    4  A    between atoms: _8  and  _9
REMARK    5  A    between atoms: _12  and  _13
REMARK    6  A    between atoms: _18  and  _20
REMARK    7  A    between atoms: _20  and  _21
REMARK    8  A    between atoms: _20  and  _23
REMARK    9  A    between atoms: _23  and  _24
REMARK   10  A    between atoms: _24  and  _25
REMARK   11  A    between atoms: _28  and  _30
REMARK   12  A    between atoms: _30  and  _31
REMARK   13  A    between atoms: _30  and  _33
REMARK   14  A    between atoms: _33  and  _34
REMARK   15  A    between atoms: _37  and  _39
REMARK   16  A    between atoms: _39  and  _40
REMARK   17  A    between atoms: _42  and  _44
REMARK   18  A    between atoms: _44  and  _45
REMARK   19  A    between atoms: _44  and  _47
REMARK   20  A    between atoms: _47  and  _48
REMARK   21  A    between atoms: _54  and  _56
REMARK   22  A    between atoms: _56  and  _57
REMARK   23  A    between atoms: _56  and  _59
REMARK   24  A    between atoms: _59  and  _60
REMARK   25  A    between atoms: _62  and  _64
REMARK   26  A    between atoms: _64  and  _65
REMARK   27  A    between atoms: _64  and  _67
REMARK   28  A    between atoms: _67  and  _68
REMARK   29  A    between atoms: _71  and  _73
REMARK   30  A    between atoms: _73  and  _74
REMARK   31  A    between atoms: _73  and  _76
REMARK   32  A    between atoms: _76  and  _77
REMARK   33  A    between atoms: _79  and  _81
REMARK   34  A    between atoms: _81  and  _82
REMARK   35  A    between atoms: _84  and  _86
REMARK   36  A    between atoms: _86  and  _87
REMARK   37  A    between atoms: _89  and  _91
REMARK   38  A    between atoms: _91  and  _92
REMARK   39  A    between atoms: _94  and  _96
REMARK   40  A    between atoms: _96  and  _97
REMARK   41  A    between atoms: _96  and  _99
REMARK   42  A    between atoms: _99  and  _100
REMARK   43  A    between atoms: _100  and  _101
REMARK   44  A    between atoms: _101  and  _102
REMARK   45  A    between atoms: _111  and  _113
REMARK   46  A    between atoms: _113  and  _114
REMARK   47  A    between atoms: _116  and  _118
REMARK   48  A    between atoms: _118  and  _119
REMARK   49  A    between atoms: _118  and  _121
REMARK   50  A    between atoms: _121  and  _122
REMARK   51  A    between atoms: _128  and  _129
REMARK   52  A    between atoms: _134  and  _136
REMARK   53  A    between atoms: _136  and  _137
REMARK   54  A    between atoms: _136  and  _139
REMARK   55  A    between atoms: _139  and  _140
REMARK   56  A    between atoms: _146  and  _148
REMARK   57  A    between atoms: _148  and  _149
REMARK   58  A    between atoms: _148  and  _151
REMARK   59  A    between atoms: _151  and  _152
REMARK   60  A    between atoms: _155  and  _157
REMARK   61  A    between atoms: _157  and  _158
REMARK   62  A    between atoms: _157  and  _160
REMARK   63  A    between atoms: _160  and  _161
REMARK   64  A    between atoms: _167  and  _169
REMARK   65  A    between atoms: _169  and  _170
REMARK   66  A    between atoms: _169  and  _172
REMARK   67  A    between atoms: _175  and  _177
REMARK   68  A    between atoms: _177  and  _178
REMARK   69  A    between atoms: _177  and  _180
REMARK   70  A    between atoms: _180  and  _181
REMARK   71  A    between atoms: _184  and  _186
REMARK   72  A    between atoms: _186  and  _187
REMARK   73  A    between atoms: _186  and  _189
REMARK   74  A    between atoms: _189  and  _190
REMARK   75  A    between atoms: _190  and  _191
REMARK   76  A    between atoms: _191  and  _192
REMARK   77  A    between atoms: _201  and  _203
REMARK   78  A    between atoms: _203  and  _204
REMARK   79  A    between atoms: _203  and  _206
REMARK   80  A    between atoms: _209  and  _211
REMARK   81  A    between atoms: _211  and  _212
REMARK   82  A    between atoms: _211  and  _214
REMARK   83  A    between atoms: _214  and  _215
REMARK   84  A    between atoms: _215  and  _216
REMARK   85  A    between atoms: _222  and  _223
REMARK   86  A    between atoms: _229  and  _230
REMARK   87  A    between atoms: _235  and  _237
REMARK   88  A    between atoms: _237  and  _238
REMARK   89  A    between atoms: _241  and  _243
REMARK   90  A    between atoms: _243  and  _244
REMARK   91  A    between atoms: _243  and  _246
REMARK   92  A    between atoms: _246  and  _247
REMARK   93  A    between atoms: _250  and  _252
REMARK   94  A    between atoms: _252  and  _253
REMARK   95  A    between atoms: _252  and  _255
REMARK   96  A    between atoms: _255  and  _256
REMARK   97  A    between atoms: _259  and  _261
REMARK   98  A    between atoms: _261  and  _262
REMARK   99  A    between atoms: _261  and  _264
REMARK  100  A    between atoms: _264  and  _265
REMARK  101  A    between atoms: _271  and  _273
REMARK  102  A    between atoms: _273  and  _274
REMARK  103  A    between atoms: _273  and  _276
REMARK  104  A    between atoms: _276  and  _277
REMARK  105  A    between atoms: _282  and  _284
REMARK  106  A    between atoms: _284  and  _285
REMARK  107  A    between atoms: _287  and  _289
REMARK  108  A    between atoms: _289  and  _290
REMARK  109  A    between atoms: _293  and  _295
REMARK  110  A    between atoms: _295  and  _296
REMARK  111  A    between atoms: _295  and  _298
REMARK  112  A    between atoms: _301  and  _303
REMARK  113  A    between atoms: _303  and  _304
REMARK  114  A    between atoms: _303  and  _306
REMARK  115  A    between atoms: _306  and  _307
REMARK  116  A    between atoms: _309  and  _311
REMARK  117  A    between atoms: _311  and  _312
REMARK  118  A    between atoms: _311  and  _314
REMARK  119  A    between atoms: _314  and  _315
REMARK  120  A    between atoms: _318  and  _320
REMARK  121  A    between atoms: _320  and  _321
REMARK  122  A    between atoms: _320  and  _323
REMARK  123  A    between atoms: _323  and  _324
REMARK  124  A    between atoms: _327  and  _329
REMARK  125  A    between atoms: _329  and  _330
REMARK  126  A    between atoms: _329  and  _332
REMARK  127  A    between atoms: _332  and  _333
REMARK  128  A    between atoms: _333  and  _334
REMARK  129  A    between atoms: _334  and  _335
REMARK  130  A    between atoms: _335  and  _336
REMARK  131  A    between atoms: _340  and  _342
REMARK  132  A    between atoms: _342  and  _343
REMARK  133  A    between atoms: _342  and  _345
REMARK  134  A    between atoms: _345  and  _346
REMARK  135  A    between atoms: _349  and  _351
REMARK  136  A    between atoms: _351  and  _352
REMARK  137  A    between atoms: _351  and  _354
REMARK  138  A    between atoms: _354  and  _355
REMARK  139  A    between atoms: _361  and  _363
REMARK  140  A    between atoms: _363  and  _364
REMARK  141  A    between atoms: _363  and  _366
REMARK  142  A    between atoms: _369  and  _371
REMARK  143  A    between atoms: _371  and  _372
REMARK  144  A    between atoms: _371  and  _374
REMARK  145  A    between atoms: _374  and  _375
REMARK  146  A    between atoms: _378  and  _380
REMARK  147  A    between atoms: _380  and  _381
REMARK  148  A    between atoms: _380  and  _383
REMARK  149  A    between atoms: _386  and  _388
REMARK  150  A    between atoms: _388  and  _389
REMARK  151  A    between atoms: _388  and  _391
REMARK  152  A    between atoms: _391  and  _392
REMARK  153  A    between atoms: _392  and  _393
REMARK  154  A    between atoms: _393  and  _394
REMARK  155  A    between atoms: _394  and  _395
REMARK  156  A    between atoms: _399  and  _401
REMARK  157  A    between atoms: _401  and  _402
REMARK  158  A    between atoms: _401  and  _404
REMARK  159  A    between atoms: _404  and  _405
REMARK  160  A    between atoms: _408  and  _410
REMARK  161  A    between atoms: _410  and  _411
REMARK  162  A    between atoms: _410  and  _413
REMARK  163  A    between atoms: _413  and  _414
REMARK  164  A    between atoms: _419  and  _420
REMARK  165  A    between atoms: _422  and  _424
REMARK  166  A    between atoms: _424  and  _425
REMARK  167  A    between atoms: _424  and  _427
REMARK  168  A    between atoms: _427  and  _428
REMARK  169  A    between atoms: _433  and  _434
REMARK  170  A    between atoms: _436  and  _438
REMARK  171  A    between atoms: _438  and  _439
REMARK  172  A    between atoms: _441  and  _443
REMARK  173  A    between atoms: _443  and  _444
REMARK  174  A    between atoms: _443  and  _446
REMARK  175  A    between atoms: _449  and  _451
REMARK  176  A    between atoms: _451  and  _452
REMARK  177  A    between atoms: _451  and  _454
REMARK  178  A    between atoms: _454  and  _455
REMARK  179  A    between atoms: _457  and  _459
REMARK  180  A    between atoms: _459  and  _460
REMARK  181  A    between atoms: _459  and  _462
REMARK  182  A    between atoms: _462  and  _463
REMARK  183  A    between atoms: _468  and  _469
REMARK  184  A    between atoms: _471  and  _473
REMARK  185  A    between atoms: _473  and  _474
REMARK  186  A    between atoms: _473  and  _476
REMARK  187  A    between atoms: _476  and  _477
REMARK  188  A    between atoms: _482  and  _483
REMARK  189  A    between atoms: _485  and  _487
REMARK  190  A    between atoms: _487  and  _488
REMARK  191  A    between atoms: _487  and  _490
REMARK  192  A    between atoms: _490  and  _491
REMARK  193  A    between atoms: _494  and  _496
REMARK  194  A    between atoms: _496  and  _497
REMARK  195  A    between atoms: _496  and  _499
REMARK  196  A    between atoms: _503  and  _504
REMARK  197  A    between atoms: _509  and  _511
REMARK  198  A    between atoms: _511  and  _512
REMARK  199  A    between atoms: _511  and  _514
REMARK  200  A    between atoms: _514  and  _515
REMARK  201  A    between atoms: _520  and  _521
REMARK  202  A    between atoms: _523  and  _525
REMARK  203  A    between atoms: _525  and  _526
REMARK  204  A    between atoms: _525  and  _528
REMARK  205  A    between atoms: _528  and  _529
REMARK  206  A    between atoms: _534  and  _535
REMARK  207  A    between atoms: _537  and  _539
REMARK  208  A    between atoms: _539  and  _540
REMARK  209  A    between atoms: _539  and  _542
REMARK  210  A    between atoms: _542  and  _543
REMARK  211  A    between atoms: _545  and  _547
REMARK  212  A    between atoms: _547  and  _548
REMARK  213  A    between atoms: _547  and  _550
REMARK  214  A    between atoms: _550  and  _551
REMARK  215  A    between atoms: _554  and  _556
REMARK  216  A    between atoms: _556  and  _557
REMARK  217  A    between atoms: _556  and  _559
REMARK  218  A    between atoms: _559  and  _560
REMARK  219  A    between atoms: _565  and  _566
REMARK  220  A    between atoms: _568  and  _570
REMARK  221  A    between atoms: _570  and  _571
REMARK  222  A    between atoms: _570  and  _573
REMARK  223  A    between atoms: _573  and  _574
REMARK  224  A    between atoms: _579  and  _580
REMARK  225  A    between atoms: _582  and  _584
REMARK  226  A    between atoms: _584  and  _585
REMARK  227  A    between atoms: _587  and  _589
REMARK  228  A    between atoms: _589  and  _590
REMARK  229  A    between atoms: _589  and  _592
REMARK  230  A    between atoms: _592  and  _593
REMARK  231  A    between atoms: _595  and  _597
REMARK  232  A    between atoms: _597  and  _598
REMARK  233  A    between atoms: _597  and  _600
REMARK  234  A    between atoms: _600  and  _601
REMARK  235  A    between atoms: _606  and  _608
REMARK  236  A    between atoms: _608  and  _609
REMARK  237  A    between atoms: _608  and  _611
REMARK  238  A    between atoms: _611  and  _612
REMARK  239  A    between atoms: _617  and  _618
REMARK                            x       y       z     vdW  Elec       q    Type
REMARK                         _______ _______ _______ _____ _____    ______ ____
ROOT
ATOM      1  O   HOH     1      -1.179  -6.841  -7.812  0.00  0.00    +0.000 OA
ENDROOT
TORSDOF 0
REMARK  Name = ../refined-set-2016/2qbw/2qbw_pocket.pdb
REMARK  239 active torsions:
REMARK  status: ('A' for Active; 'I' for Inactive)
REMARK    1  A    between atoms: _1  and  _5
REMARK    2  A    between atoms: _5  and  _6
REMARK    3  A    between atoms: _5  and  _8
REMARK    4  A    between atoms: _8  and  _9
REMARK    5  A    between atoms: _12  and  _13
REMARK    6  A    between atoms: _18  and  _20
REMARK    7  A    between atoms: _20  and  _21
REMARK    8  A    between atoms: _20  and  _23
REMARK    9  A    between atoms: _23  and  _24
REMARK   10  A    between atoms: _24  and  _25
REMARK   11  A    between atoms: _28  and  _30
REMARK   12  A    between atoms: _30  and  _31
REMARK   13  A    between atoms: _30  and  _33
REMARK   14  A    between atoms: _33  and  _34
REMARK   15  A    between atoms: _37  and  _39
REMARK   16  A    between atoms: _39  and  _40
REMARK   17  A    between atoms: _42  and  _44
REMARK   18  A    between atoms: _44  and  _45
REMARK   19  A    between atoms: _44  and  _47
REMARK   20  A    between atoms: _47  and  _48
REMARK   21  A    between atoms: _54  and  _56
REMARK   22  A    between atoms: _56  and  _57
REMARK   23  A    between atoms: _56  and  _59
REMARK   24  A    between atoms: _59  and  _60
REMARK   25  A    between atoms: _62  and  _64
REMARK   26  A    between atoms: _64  and  _65
REMARK   27  A    between atoms: _64  and  _67
REMARK   28  A    between atoms: _67  and  _68
REMARK   29  A    between atoms: _71  and  _73
REMARK   30  A    between atoms: _73  and  _74
REMARK   31  A    between atoms: _73  and  _76
REMARK   32  A    between atoms: _76  and  _77
REMARK   33  A    between atoms: _79  and  _81
REMARK   34  A    between atoms: _81  and  _82
REMARK   35  A    between atoms: _84  and  _86
REMARK   36  A    between atoms: _86  and  _87
REMARK   37  A    between atoms: _89  and  _91
REMARK   38  A    between atoms: _91  and  _92
REMARK   39  A    between atoms: _94  and  _96
REMARK   40  A    between atoms: _96  and  _97
REMARK   41  A    between atoms: _96  and  _99
REMARK   42  A    between atoms: _99  and  _100
REMARK   43  A    between atoms: _100  and  _101
REMARK   44  A    between atoms: _101  and  _102
REMARK   45  A    between atoms: _111  and  _113
REMARK   46  A    between atoms: _113  and  _114
REMARK   47  A    between atoms: _116  and  _118
REMARK   48  A    between atoms: _118  and  _119
REMARK   49  A    between atoms: _118  and  _121
REMARK   50  A    between atoms: _121  and  _122
REMARK   51  A    between atoms: _128  and  _129
REMARK   52  A    between atoms: _134  and  _136
REMARK   53  A    between atoms: _136  and  _137
REMARK   54  A    between atoms: _136  and  _139
REMARK   55  A    between atoms: _139  and  _140
REMARK   56  A    between atoms: _146  and  _148
REMARK   57  A    between atoms: _148  and  _149
REMARK   58  A    between atoms: _148  and  _151
REMARK   59  A    between atoms: _151  and  _152
REMARK   60  A    between atoms: _155  and  _157
REMARK   61  A    between atoms: _157  and  _158
REMARK   62  A    between atoms: _157  and  _160
REMARK   63  A    between atoms: _160  and  _161
REMARK   64  A    between atoms: _167  and  _169
REMARK   65  A    between atoms: _169  and  _170
REMARK   66  A    between atoms: _169  and  _172
REMARK   67  A    between atoms: _175  and  _177
REMARK   68  A    between atoms: _177  and  _178
REMARK   69  A    between atoms: _177  and  _180
REMARK   70  A    between atoms: _180  and  _181
REMARK   71  A    between atoms: _184  and  _186
REMARK   72  A    between atoms: _186  and  _187
REMARK   73  A    between atoms: _186  and  _189
REMARK   74  A    between atoms: _189  and  _190
REMARK   75  A    between atoms: _190  and  _191
REMARK   76  A    between atoms: _191  and  _192
REMARK   77  A    between atoms: _201  and  _203
REMARK   78  A    between atoms: _203  and  _204
REMARK   79  A    between atoms: _203  and  _206
REMARK   80  A    between atoms: _209  and  _211
REMARK   81  A    between atoms: _211  and  _212
REMARK   82  A    between atoms: _211  and  _214
REMARK   83  A    between atoms: _214  and  _215
REMARK   84  A    between atoms: _215  and  _216
REMARK   85  A    between atoms: _222  and  _223
REMARK   86  A    between atoms: _229  and  _230
REMARK   87  A    between atoms: _235  and  _237
REMARK   88  A    between atoms: _237  and  _238
REMARK   89  A    between atoms: _241  and  _243
REMARK   90  A    between atoms: _243  and  _244
REMARK   91  A    between atoms: _243  and  _246
REMARK   92  A    between atoms: _246  and  _247
REMARK   93  A    between atoms: _250  and  _252
REMARK   94  A    between atoms: _252  and  _253
REMARK   95  A    between atoms: _252  and  _255
REMARK   96  A    between atoms: _255  and  _256
REMARK   97  A    between atoms: _259  and  _261
REMARK   98  A    between atoms: _261  and  _262
REMARK   99  A    between atoms: _261  and  _264
REMARK  100  A    between atoms: _264  and  _265
REMARK  101  A    between atoms: _271  and  _273
REMARK  102  A    between atoms: _273  and  _274
REMARK  103  A    between atoms: _273  and  _276
REMARK  104  A    between atoms: _276  and  _277
REMARK  105  A    between atoms: _282  and  _284
REMARK  106  A    between atoms: _284  and  _285
REMARK  107  A    between atoms: _287  and  _289
REMARK  108  A    between atoms: _289  and  _290
REMARK  109  A    between atoms: _293  and  _295
REMARK  110  A    between atoms: _295  and  _296
REMARK  111  A    between atoms: _295  and  _298
REMARK  112  A    between atoms: _301  and  _303
REMARK  113  A    between atoms: _303  and  _304
REMARK  114  A    between atoms: _303  and  _306
REMARK  115  A    between atoms: _306  and  _307
REMARK  116  A    between atoms: _309  and  _311
REMARK  117  A    between atoms: _311  and  _312
REMARK  118  A    between atoms: _311  and  _314
REMARK  119  A    between atoms: _314  and  _315
REMARK  120  A    between atoms: _318  and  _320
REMARK  121  A    between atoms: _320  and  _321
REMARK  122  A    between atoms: _320  and  _323
REMARK  123  A    between atoms: _323  and  _324
REMARK  124  A    between atoms: _327  and  _329
REMARK  125  A    between atoms: _329  and  _330
REMARK  126  A    between atoms: _329  and  _332
REMARK  127  A    between atoms: _332  and  _333
REMARK  128  A    between atoms: _333  and  _334
REMARK  129  A    between atoms: _334  and  _335
REMARK  130  A    between atoms: _335  and  _336
REMARK  131  A    between atoms: _340  and  _342
REMARK  132  A    between atoms: _342  and  _343
REMARK  133  A    between atoms: _342  and  _345
REMARK  134  A    between atoms: _345  and  _346
REMARK  135  A    between atoms: _349  and  _351
REMARK  136  A    between atoms: _351  and  _352
REMARK  137  A    between atoms: _351  and  _354
REMARK  138  A    between atoms: _354  and  _355
REMARK  139  A    between atoms: _361  and  _363
REMARK  140  A    between atoms: _363  and  _364
REMARK  141  A    between atoms: _363  and  _366
REMARK  142  A    between atoms: _369  and  _371
REMARK  143  A    between atoms: _371  and  _372
REMARK  144  A    between atoms: _371  and  _374
REMARK  145  A    between atoms: _374  and  _375
REMARK  146  A    between atoms: _378  and  _380
REMARK  147  A    between atoms: _380  and  _381
REMARK  148  A    between atoms: _380  and  _383
REMARK  149  A    between atoms: _386  and  _388
REMARK  150  A    between atoms: _388  and  _389
REMARK  151  A    between atoms: _388  and  _391
REMARK  152  A    between atoms: _391  and  _392
REMARK  153  A    between atoms: _392  and  _393
REMARK  154  A    between atoms: _393  and  _394
REMARK  155  A    between atoms: _394  and  _395
REMARK  156  A    between atoms: _399  and  _401
REMARK  157  A    between atoms: _401  and  _402
REMARK  158  A    between atoms: _401  and  _404
REMARK  159  A    between atoms: _404  and  _405
REMARK  160  A    between atoms: _408  and  _410
REMARK  161  A    between atoms: _410  and  _411
REMARK  162  A    between atoms: _410  and  _413
REMARK  163  A    between atoms: _413  and  _414
REMARK  164  A    between atoms: _419  and  _420
REMARK  165  A    between atoms: _422  and  _424
REMARK  166  A    between atoms: _424  and  _425
REMARK  167  A    between atoms: _424  and  _427
REMARK  168  A    between atoms: _427  and  _428
REMARK  169  A    between atoms: _433  and  _434
REMARK  170  A    between atoms: _436  and  _438
REMARK  171  A    between atoms: _438  and  _439
REMARK  172  A    between atoms: _441  and  _443
REMARK  173  A    between atoms: _443  and  _444
REMARK  174  A    between atoms: _443  and  _446
REMARK  175  A    between atoms: _449  and  _451
REMARK  176  A    between atoms: _451  and  _452
REMARK  177  A    between atoms: _451  and  _454
REMARK  178  A    between atoms: _454  and  _455
REMARK  179  A    between atoms: _457  and  _459
REMARK  180  A    between atoms: _459  and  _460
REMARK  181  A    between atoms: _459  and  _462
REMARK  182  A    between atoms: _462  and  _463
REMARK  183  A    between atoms: _468  and  _469
REMARK  184  A    between atoms: _471  and  _473
REMARK  185  A    between atoms: _473  and  _474
REMARK  186  A    between atoms: _473  and  _476
REMARK  187  A    between atoms: _476  and  _477
REMARK  188  A    between atoms: _482  and  _483
REMARK  189  A    between atoms: _485  and  _487
REMARK  190  A    between atoms: _487  and  _488
REMARK  191  A    between atoms: _487  and  _490
REMARK  192  A    between atoms: _490  and  _491
REMARK  193  A    between atoms: _494  and  _496
REMARK  194  A    between atoms: _496  and  _497
REMARK  195  A    between atoms: _496  and  _499
REMARK  196  A    between atoms: _503  and  _504
REMARK  197  A    between atoms: _509  and  _511
REMARK  198  A    between atoms: _511  and  _512
REMARK  199  A    between atoms: _511  and  _514
REMARK  200  A    between atoms: _514  and  _515
REMARK  201  A    between atoms: _520  and  _521
REMARK  202  A    between atoms: _523  and  _525
REMARK  203  A    between atoms: _525  and  _526
REMARK  204  A    between atoms: _525  and  _528
REMARK  205  A    between atoms: _528  and  _529
REMARK  206  A    between atoms: _534  and  _535
REMARK  207  A    between atoms: _537  and  _539
REMARK  208  A    between atoms: _539  and  _540
REMARK  209  A    between atoms: _539  and  _542
REMARK  210  A    between atoms: _542  and  _543
REMARK  211  A    between atoms: _545  and  _547
REMARK  212  A    between atoms: _547  and  _548
REMARK  213  A    between atoms: _547  and  _550
REMARK  214  A    between atoms: _550  and  _551
REMARK  215  A    between atoms: _554  and  _556
REMARK  216  A    between atoms: _556  and  _557
REMARK  217  A    between atoms: _556  and  _559
REMARK  218  A    between atoms: _559  and  _560
REMARK  219  A    between atoms: _565  and  _566
REMARK  220  A    between atoms: _568  and  _570
REMARK  221  A    between atoms: _570  and  _571
REMARK  222  A    between atoms: _570  and  _573
REMARK  223  A    between atoms: _573  and  _574
REMARK  224  A    between atoms: _579  and  _580
REMARK  225  A    between atoms: _582  and  _584
REMARK  226  A    between atoms: _584  and  _585
REMARK  227  A    between atoms: _587  and  _589
REMARK  228  A    between atoms: _589  and  _590
REMARK  229  A    between atoms: _589  and  _592
REMARK  230  A    between atoms: _592  and  _593
REMARK  231  A    between atoms: _595  and  _597
REMARK  232  A    between atoms: _597  and  _598
REMARK  233  A    between atoms: _597  and  _600
REMARK  234  A    between atoms: _600  and  _601
REMARK  235  A    between atoms: _606  and  _608
REMARK  236  A    between atoms: _608  and  _609
REMARK  237  A    between atoms: _608  and  _611
REMARK  238  A    between atoms: _611  and  _612
REMARK  239  A    between atoms: _617  and  _618
REMARK                            x       y       z     vdW  Elec       q    Type
REMARK                         _______ _______ _______ _____ _____    ______ ____
ROOT
ATOM      1  O   HOH     1       1.710 -19.152  -7.756  0.00  0.00    +0.000 OA
ENDROOT
TORSDOF 0
REMARK  Name = ../refined-set-2016/2qbw/2qbw_pocket.pdb
REMARK  239 active torsions:
REMARK  status: ('A' for Active; 'I' for Inactive)
REMARK    1  A    between atoms: _1  and  _5
REMARK    2  A    between atoms: _5  and  _6
REMARK    3  A    between atoms: _5  and  _8
REMARK    4  A    between atoms: _8  and  _9
REMARK    5  A    between atoms: _12  and  _13
REMARK    6  A    between atoms: _18  and  _20
REMARK    7  A    between atoms: _20  and  _21
REMARK    8  A    between atoms: _20  and  _23
REMARK    9  A    between atoms: _23  and  _24
REMARK   10  A    between atoms: _24  and  _25
REMARK   11  A    between atoms: _28  and  _30
REMARK   12  A    between atoms: _30  and  _31
REMARK   13  A    between atoms: _30  and  _33
REMARK   14  A    between atoms: _33  and  _34
REMARK   15  A    between atoms: _37  and  _39
REMARK   16  A    between atoms: _39  and  _40
REMARK   17  A    between atoms: _42  and  _44
REMARK   18  A    between atoms: _44  and  _45
REMARK   19  A    between atoms: _44  and  _47
REMARK   20  A    between atoms: _47  and  _48
REMARK   21  A    between atoms: _54  and  _56
REMARK   22  A    between atoms: _56  and  _57
REMARK   23  A    between atoms: _56  and  _59
REMARK   24  A    between atoms: _59  and  _60
REMARK   25  A    between atoms: _62  and  _64
REMARK   26  A    between atoms: _64  and  _65
REMARK   27  A    between atoms: _64  and  _67
REMARK   28  A    between atoms: _67  and  _68
REMARK   29  A    between atoms: _71  and  _73
REMARK   30  A    between atoms: _73  and  _74
REMARK   31  A    between atoms: _73  and  _76
REMARK   32  A    between atoms: _76  and  _77
REMARK   33  A    between atoms: _79  and  _81
REMARK   34  A    between atoms: _81  and  _82
REMARK   35  A    between atoms: _84  and  _86
REMARK   36  A    between atoms: _86  and  _87
REMARK   37  A    between atoms: _89  and  _91
REMARK   38  A    between atoms: _91  and  _92
REMARK   39  A    between atoms: _94  and  _96
REMARK   40  A    between atoms: _96  and  _97
REMARK   41  A    between atoms: _96  and  _99
REMARK   42  A    between atoms: _99  and  _100
REMARK   43  A    between atoms: _100  and  _101
REMARK   44  A    between atoms: _101  and  _102
REMARK   45  A    between atoms: _111  and  _113
REMARK   46  A    between atoms: _113  and  _114
REMARK   47  A    between atoms: _116  and  _118
REMARK   48  A    between atoms: _118  and  _119
REMARK   49  A    between atoms: _118  and  _121
REMARK   50  A    between atoms: _121  and  _122
REMARK   51  A    between atoms: _128  and  _129
REMARK   52  A    between atoms: _134  and  _136
REMARK   53  A    between atoms: _136  and  _137
REMARK   54  A    between atoms: _136  and  _139
REMARK   55  A    between atoms: _139  and  _140
REMARK   56  A    between atoms: _146  and  _148
REMARK   57  A    between atoms: _148  and  _149
REMARK   58  A    between atoms: _148  and  _151
REMARK   59  A    between atoms: _151  and  _152
REMARK   60  A    between atoms: _155  and  _157
REMARK   61  A    between atoms: _157  and  _158
REMARK   62  A    between atoms: _157  and  _160
REMARK   63  A    between atoms: _160  and  _161
REMARK   64  A    between atoms: _167  and  _169
REMARK   65  A    between atoms: _169  and  _170
REMARK   66  A    between atoms: _169  and  _172
REMARK   67  A    between atoms: _175  and  _177
REMARK   68  A    between atoms: _177  and  _178
REMARK   69  A    between atoms: _177  and  _180
REMARK   70  A    between atoms: _180  and  _181
REMARK   71  A    between atoms: _184  and  _186
REMARK   72  A    between atoms: _186  and  _187
REMARK   73  A    between atoms: _186  and  _189
REMARK   74  A    between atoms: _189  and  _190
REMARK   75  A    between atoms: _190  and  _191
REMARK   76  A    between atoms: _191  and  _192
REMARK   77  A    between atoms: _201  and  _203
REMARK   78  A    between atoms: _203  and  _204
REMARK   79  A    between atoms: _203  and  _206
REMARK   80  A    between atoms: _209  and  _211
REMARK   81  A    between atoms: _211  and  _212
REMARK   82  A    between atoms: _211  and  _214
REMARK   83  A    between atoms: _214  and  _215
REMARK   84  A    between atoms: _215  and  _216
REMARK   85  A    between atoms: _222  and  _223
REMARK   86  A    between atoms: _229  and  _230
REMARK   87  A    between atoms: _235  and  _237
REMARK   88  A    between atoms: _237  and  _238
REMARK   89  A    between atoms: _241  and  _243
REMARK   90  A    between atoms: _243  and  _244
REMARK   91  A    between atoms: _243  and  _246
REMARK   92  A    between atoms: _246  and  _247
REMARK   93  A    between atoms: _250  and  _252
REMARK   94  A    between atoms: _252  and  _253
REMARK   95  A    between atoms: _252  and  _255
REMARK   96  A    between atoms: _255  and  _256
REMARK   97  A    between atoms: _259  and  _261
REMARK   98  A    between atoms: _261  and  _262
REMARK   99  A    between atoms: _261  and  _264
REMARK  100  A    between atoms: _264  and  _265
REMARK  101  A    between atoms: _271  and  _273
REMARK  102  A    between atoms: _273  and  _274
REMARK  103  A    between atoms: _273  and  _276
REMARK  104  A    between atoms: _276  and  _277
REMARK  105  A    between atoms: _282  and  _284
REMARK  106  A    between atoms: _284  and  _285
REMARK  107  A    between atoms: _287  and  _289
REMARK  108  A    between atoms: _289  and  _290
REMARK  109  A    between atoms: _293  and  _295
REMARK  110  A    between atoms: _295  and  _296
REMARK  111  A    between atoms: _295  and  _298
REMARK  112  A    between atoms: _301  and  _303
REMARK  113  A    between atoms: _303  and  _304
REMARK  114  A    between atoms: _303  and  _306
REMARK  115  A    between atoms: _306  and  _307
REMARK  116  A    between atoms: _309  and  _311
REMARK  117  A    between atoms: _311  and  _312
REMARK  118  A    between atoms: _311  and  _314
REMARK  119  A    between atoms: _314  and  _315
REMARK  120  A    between atoms: _318  and  _320
REMARK  121  A    between atoms: _320  and  _321
REMARK  122  A    between atoms: _320  and  _323
REMARK  123  A    between atoms: _323  and  _324
REMARK  124  A    between atoms: _327  and  _329
REMARK  125  A    between atoms: _329  and  _330
REMARK  126  A    between atoms: _329  and  _332
REMARK  127  A    between atoms: _332  and  _333
REMARK  128  A    between atoms: _333  and  _334
REMARK  129  A    between atoms: _334  and  _335
REMARK  130  A    between atoms: _335  and  _336
REMARK  131  A    between atoms: _340  and  _342
REMARK  132  A    between atoms: _342  and  _343
REMARK  133  A    between atoms: _342  and  _345
REMARK  134  A    between atoms: _345  and  _346
REMARK  135  A    between atoms: _349  and  _351
REMARK  136  A    between atoms: _351  and  _352
REMARK  137  A    between atoms: _351  and  _354
REMARK  138  A    between atoms: _354  and  _355
REMARK  139  A    between atoms: _361  and  _363
REMARK  140  A    between atoms: _363  and  _364
REMARK  141  A    between atoms: _363  and  _366
REMARK  142  A    between atoms: _369  and  _371
REMARK  143  A    between atoms: _371  and  _372
REMARK  144  A    between atoms: _371  and  _374
REMARK  145  A    between atoms: _374  and  _375
REMARK  146  A    between atoms: _378  and  _380
REMARK  147  A    between atoms: _380  and  _381
REMARK  148  A    between atoms: _380  and  _383
REMARK  149  A    between atoms: _386  and  _388
REMARK  150  A    between atoms: _388  and  _389
REMARK  151  A    between atoms: _388  and  _391
REMARK  152  A    between atoms: _391  and  _392
REMARK  153  A    between atoms: _392  and  _393
REMARK  154  A    between atoms: _393  and  _394
REMARK  155  A    between atoms: _394  and  _395
REMARK  156  A    between atoms: _399  and  _401
REMARK  157  A    between atoms: _401  and  _402
REMARK  158  A    between atoms: _401  and  _404
REMARK  159  A    between atoms: _404  and  _405
REMARK  160  A    between atoms: _408  and  _410
REMARK  161  A    between atoms: _410  and  _411
REMARK  162  A    between atoms: _410  and  _413
REMARK  163  A    between atoms: _413  and  _414
REMARK  164  A    between atoms: _419  and  _420
REMARK  165  A    between atoms: _422  and  _424
REMARK  166  A    between atoms: _424  and  _425
REMARK  167  A    between atoms: _424  and  _427
REMARK  168  A    between atoms: _427  and  _428
REMARK  169  A    between atoms: _433  and  _434
REMARK  170  A    between atoms: _436  and  _438
REMARK  171  A    between atoms: _438  and  _439
REMARK  172  A    between atoms: _441  and  _443
REMARK  173  A    between atoms: _443  and  _444
REMARK  174  A    between atoms: _443  and  _446
REMARK  175  A    between atoms: _449  and  _451
REMARK  176  A    between atoms: _451  and  _452
REMARK  177  A    between atoms: _451  and  _454
REMARK  178  A    between atoms: _454  and  _455
REMARK  179  A    between atoms: _457  and  _459
REMARK  180  A    between atoms: _459  and  _460
REMARK  181  A    between atoms: _459  and  _462
REMARK  182  A    between atoms: _462  and  _463
REMARK  183  A    between atoms: _468  and  _469
REMARK  184  A    between atoms: _471  and  _473
REMARK  185  A    between atoms: _473  and  _474
REMARK  186  A    between atoms: _473  and  _476
REMARK  187  A    between atoms: _476  and  _477
REMARK  188  A    between atoms: _482  and  _483
REMARK  189  A    between atoms: _485  and  _487
REMARK  190  A    between atoms: _487  and  _488
REMARK  191  A    between atoms: _487  and  _490
REMARK  192  A    between atoms: _490  and  _491
REMARK  193  A    between atoms: _494  and  _496
REMARK  194  A    between atoms: _496  and  _497
REMARK  195  A    between atoms: _496  and  _499
REMARK  196  A    between atoms: _503  and  _504
REMARK  197  A    between atoms: _509  and  _511
REMARK  198  A    between atoms: _511  and  _512
REMARK  199  A    between atoms: _511  and  _514
REMARK  200  A    between atoms: _514  and  _515
REMARK  201  A    between atoms: _520  and  _521
REMARK  202  A    between atoms: _523  and  _525
REMARK  203  A    between atoms: _525  and  _526
REMARK  204  A    between atoms: _525  and  _528
REMARK  205  A    between atoms: _528  and  _529
REMARK  206  A    between atoms: _534  and  _535
REMARK  207  A    between atoms: _537  and  _539
REMARK  208  A    between atoms: _539  and  _540
REMARK  209  A    between atoms: _539  and  _542
REMARK  210  A    between atoms: _542  and  _543
REMARK  211  A    between atoms: _545  and  _547
REMARK  212  A    between atoms: _547  and  _548
REMARK  213  A    between atoms: _547  and  _550
REMARK  214  A    between atoms: _550  and  _551
REMARK  215  A    between atoms: _554  and  _556
REMARK  216  A    between atoms: _556  and  _557
REMARK  217  A    between atoms: _556  and  _559
REMARK  218  A    between atoms: _559  and  _560
REMARK  219  A    between atoms: _565  and  _566
REMARK  220  A    between atoms: _568  and  _570
REMARK  221  A    between atoms: _570  and  _571
REMARK  222  A    between atoms: _570  and  _573
REMARK  223  A    between atoms: _573  and  _574
REMARK  224  A    between atoms: _579  and  _580
REMARK  225  A    between atoms: _582  and  _584
REMARK  226  A    between atoms: _584  and  _585
REMARK  227  A    between atoms: _587  and  _589
REMARK  228  A    between atoms: _589  and  _590
REMARK  229  A    between atoms: _589  and  _592
REMARK  230  A    between atoms: _592  and  _593
REMARK  231  A    between atoms: _595  and  _597
REMARK  232  A    between atoms: _597  and  _598
REMARK  233  A    between atoms: _597  and  _600
REMARK  234  A    between atoms: _600  and  _601
REMARK  235  A    between atoms: _606  and  _608
REMARK  236  A    between atoms: _608  and  _609
REMARK  237  A    between atoms: _608  and  _611
REMARK  238  A    between atoms: _611  and  _612
REMARK  239  A    between atoms: _617  and  _618
REMARK                            x       y       z     vdW  Elec       q    Type
REMARK                         _______ _______ _______ _____ _____    ______ ____
ROOT
ATOM      1  O   HOH     1       8.148  -4.611  -4.560  0.00  0.00    +0.000 OA
ENDROOT
TORSDOF 0
REMARK  Name = ../refined-set-2016/2qbw/2qbw_pocket.pdb
REMARK  239 active torsions:
REMARK  status: ('A' for Active; 'I' for Inactive)
REMARK    1  A    between atoms: _1  and  _5
REMARK    2  A    between atoms: _5  and  _6
REMARK    3  A    between atoms: _5  and  _8
REMARK    4  A    between atoms: _8  and  _9
REMARK    5  A    between atoms: _12  and  _13
REMARK    6  A    between atoms: _18  and  _20
REMARK    7  A    between atoms: _20  and  _21
REMARK    8  A    between atoms: _20  and  _23
REMARK    9  A    between atoms: _23  and  _24
REMARK   10  A    between atoms: _24  and  _25
REMARK   11  A    between atoms: _28  and  _30
REMARK   12  A    between atoms: _30  and  _31
REMARK   13  A    between atoms: _30  and  _33
REMARK   14  A    between atoms: _33  and  _34
REMARK   15  A    between atoms: _37  and  _39
REMARK   16  A    between atoms: _39  and  _40
REMARK   17  A    between atoms: _42  and  _44
REMARK   18  A    between atoms: _44  and  _45
REMARK   19  A    between atoms: _44  and  _47
REMARK   20  A    between atoms: _47  and  _48
REMARK   21  A    between atoms: _54  and  _56
REMARK   22  A    between atoms: _56  and  _57
REMARK   23  A    between atoms: _56  and  _59
REMARK   24  A    between atoms: _59  and  _60
REMARK   25  A    between atoms: _62  and  _64
REMARK   26  A    between atoms: _64  and  _65
REMARK   27  A    between atoms: _64  and  _67
REMARK   28  A    between atoms: _67  and  _68
REMARK   29  A    between atoms: _71  and  _73
REMARK   30  A    between atoms: _73  and  _74
REMARK   31  A    between atoms: _73  and  _76
REMARK   32  A    between atoms: _76  and  _77
REMARK   33  A    between atoms: _79  and  _81
REMARK   34  A    between atoms: _81  and  _82
REMARK   35  A    between atoms: _84  and  _86
REMARK   36  A    between atoms: _86  and  _87
REMARK   37  A    between atoms: _89  and  _91
REMARK   38  A    between atoms: _91  and  _92
REMARK   39  A    between atoms: _94  and  _96
REMARK   40  A    between atoms: _96  and  _97
REMARK   41  A    between atoms: _96  and  _99
REMARK   42  A    between atoms: _99  and  _100
REMARK   43  A    between atoms: _100  and  _101
REMARK   44  A    between atoms: _101  and  _102
REMARK   45  A    between atoms: _111  and  _113
REMARK   46  A    between atoms: _113  and  _114
REMARK   47  A    between atoms: _116  and  _118
REMARK   48  A    between atoms: _118  and  _119
REMARK   49  A    between atoms: _118  and  _121
REMARK   50  A    between atoms: _121  and  _122
REMARK   51  A    between atoms: _128  and  _129
REMARK   52  A    between atoms: _134  and  _136
REMARK   53  A    between atoms: _136  and  _137
REMARK   54  A    between atoms: _136  and  _139
REMARK   55  A    between atoms: _139  and  _140
REMARK   56  A    between atoms: _146  and  _148
REMARK   57  A    between atoms: _148  and  _149
REMARK   58  A    between atoms: _148  and  _151
REMARK   59  A    between atoms: _151  and  _152
REMARK   60  A    between atoms: _155  and  _157
REMARK   61  A    between atoms: _157  and  _158
REMARK   62  A    between atoms: _157  and  _160
REMARK   63  A    between atoms: _160  and  _161
REMARK   64  A    between atoms: _167  and  _169
REMARK   65  A    between atoms: _169  and  _170
REMARK   66  A    between atoms: _169  and  _172
REMARK   67  A    between atoms: _175  and  _177
REMARK   68  A    between atoms: _177  and  _178
REMARK   69  A    between atoms: _177  and  _180
REMARK   70  A    between atoms: _180  and  _181
REMARK   71  A    between atoms: _184  and  _186
REMARK   72  A    between atoms: _186  and  _187
REMARK   73  A    between atoms: _186  and  _189
REMARK   74  A    between atoms: _189  and  _190
REMARK   75  A    between atoms: _190  and  _191
REMARK   76  A    between atoms: _191  and  _192
REMARK   77  A    between atoms: _201  and  _203
REMARK   78  A    between atoms: _203  and  _204
REMARK   79  A    between atoms: _203  and  _206
REMARK   80  A    between atoms: _209  and  _211
REMARK   81  A    between atoms: _211  and  _212
REMARK   82  A    between atoms: _211  and  _214
REMARK   83  A    between atoms: _214  and  _215
REMARK   84  A    between atoms: _215  and  _216
REMARK   85  A    between atoms: _222  and  _223
REMARK   86  A    between atoms: _229  and  _230
REMARK   87  A    between atoms: _235  and  _237
REMARK   88  A    between atoms: _237  and  _238
REMARK   89  A    between atoms: _241  and  _243
REMARK   90  A    between atoms: _243  and  _244
REMARK   91  A    between atoms: _243  and  _246
REMARK   92  A    between atoms: _246  and  _247
REMARK   93  A    between atoms: _250  and  _252
REMARK   94  A    between atoms: _252  and  _253
REMARK   95  A    between atoms: _252  and  _255
REMARK   96  A    between atoms: _255  and  _256
REMARK   97  A    between atoms: _259  and  _261
REMARK   98  A    between atoms: _261  and  _262
REMARK   99  A    between atoms: _261  and  _264
REMARK  100  A    between atoms: _264  and  _265
REMARK  101  A    between atoms: _271  and  _273
REMARK  102  A    between atoms: _273  and  _274
REMARK  103  A    between atoms: _273  and  _276
REMARK  104  A    between atoms: _276  and  _277
REMARK  105  A    between atoms: _282  and  _284
REMARK  106  A    between atoms: _284  and  _285
REMARK  107  A    between atoms: _287  and  _289
REMARK  108  A    between atoms: _289  and  _290
REMARK  109  A    between atoms: _293  and  _295
REMARK  110  A    between atoms: _295  and  _296
REMARK  111  A    between atoms: _295  and  _298
REMARK  112  A    between atoms: _301  and  _303
REMARK  113  A    between atoms: _303  and  _304
REMARK  114  A    between atoms: _303  and  _306
REMARK  115  A    between atoms: _306  and  _307
REMARK  116  A    between atoms: _309  and  _311
REMARK  117  A    between atoms: _311  and  _312
REMARK  118  A    between atoms: _311  and  _314
REMARK  119  A    between atoms: _314  and  _315
REMARK  120  A    between atoms: _318  and  _320
REMARK  121  A    between atoms: _320  and  _321
REMARK  122  A    between atoms: _320  and  _323
REMARK  123  A    between atoms: _323  and  _324
REMARK  124  A    between atoms: _327  and  _329
REMARK  125  A    between atoms: _329  and  _330
REMARK  126  A    between atoms: _329  and  _332
REMARK  127  A    between atoms: _332  and  _333
REMARK  128  A    between atoms: _333  and  _334
REMARK  129  A    between atoms: _334  and  _335
REMARK  130  A    between atoms: _335  and  _336
REMARK  131  A    between atoms: _340  and  _342
REMARK  132  A    between atoms: _342  and  _343
REMARK  133  A    between atoms: _342  and  _345
REMARK  134  A    between atoms: _345  and  _346
REMARK  135  A    between atoms: _349  and  _351
REMARK  136  A    between atoms: _351  and  _352
REMARK  137  A    between atoms: _351  and  _354
REMARK  138  A    between atoms: _354  and  _355
REMARK  139  A    between atoms: _361  and  _363
REMARK  140  A    between atoms: _363  and  _364
REMARK  141  A    between atoms: _363  and  _366
REMARK  142  A    between atoms: _369  and  _371
REMARK  143  A    between atoms: _371  and  _372
REMARK  144  A    between atoms: _371  and  _374
REMARK  145  A    between atoms: _374  and  _375
REMARK  146  A    between atoms: _378  and  _380
REMARK  147  A    between atoms: _380  and  _381
REMARK  148  A    between atoms: _380  and  _383
REMARK  149  A    between atoms: _386  and  _388
REMARK  150  A    between atoms: _388  and  _389
REMARK  151  A    between atoms: _388  and  _391
REMARK  152  A    between atoms: _391  and  _392
REMARK  153  A    between atoms: _392  and  _393
REMARK  154  A    between atoms: _393  and  _394
REMARK  155  A    between atoms: _394  and  _395
REMARK  156  A    between atoms: _399  and  _401
REMARK  157  A    between atoms: _401  and  _402
REMARK  158  A    between atoms: _401  and  _404
REMARK  159  A    between atoms: _404  and  _405
REMARK  160  A    between atoms: _408  and  _410
REMARK  161  A    between atoms: _410  and  _411
REMARK  162  A    between atoms: _410  and  _413
REMARK  163  A    between atoms: _413  and  _414
REMARK  164  A    between atoms: _419  and  _420
REMARK  165  A    between atoms: _422  and  _424
REMARK  166  A    between atoms: _424  and  _425
REMARK  167  A    between atoms: _424  and  _427
REMARK  168  A    between atoms: _427  and  _428
REMARK  169  A    between atoms: _433  and  _434
REMARK  170  A    between atoms: _436  and  _438
REMARK  171  A    between atoms: _438  and  _439
REMARK  172  A    between atoms: _441  and  _443
REMARK  173  A    between atoms: _443  and  _444
REMARK  174  A    between atoms: _443  and  _446
REMARK  175  A    between atoms: _449  and  _451
REMARK  176  A    between atoms: _451  and  _452
REMARK  177  A    between atoms: _451  and  _454
REMARK  178  A    between atoms: _454  and  _455
REMARK  179  A    between atoms: _457  and  _459
REMARK  180  A    between atoms: _459  and  _460
REMARK  181  A    between atoms: _459  and  _462
REMARK  182  A    between atoms: _462  and  _463
REMARK  183  A    between atoms: _468  and  _469
REMARK  184  A    between atoms: _471  and  _473
REMARK  185  A    between atoms: _473  and  _474
REMARK  186  A    between atoms: _473  and  _476
REMARK  187  A    between atoms: _476  and  _477
REMARK  188  A    between atoms: _482  and  _483
REMARK  189  A    between atoms: _485  and  _487
REMARK  190  A    between atoms: _487  and  _488
REMARK  191  A    between atoms: _487  and  _490
REMARK  192  A    between atoms: _490  and  _491
REMARK  193  A    between atoms: _494  and  _496
REMARK  194  A    between atoms: _496  and  _497
REMARK  195  A    between atoms: _496  and  _499
REMARK  196  A    between atoms: _503  and  _504
REMARK  197  A    between atoms: _509  and  _511
REMARK  198  A    between atoms: _511  and  _512
REMARK  199  A    between atoms: _511  and  _514
REMARK  200  A    between atoms: _514  and  _515
REMARK  201  A    between atoms: _520  and  _521
REMARK  202  A    between atoms: _523  and  _525
REMARK  203  A    between atoms: _525  and  _526
REMARK  204  A    between atoms: _525  and  _528
REMARK  205  A    between atoms: _528  and  _529
REMARK  206  A    between atoms: _534  and  _535
REMARK  207  A    between atoms: _537  and  _539
REMARK  208  A    between atoms: _539  and  _540
REMARK  209  A    between atoms: _539  and  _542
REMARK  210  A    between atoms: _542  and  _543
REMARK  211  A    between atoms: _545  and  _547
REMARK  212  A    between atoms: _547  and  _548
REMARK  213  A    between atoms: _547  and  _550
REMARK  214  A    between atoms: _550  and  _551
REMARK  215  A    between atoms: _554  and  _556
REMARK  216  A    between atoms: _556  and  _557
REMARK  217  A    between atoms: _556  and  _559
REMARK  218  A    between atoms: _559  and  _560
REMARK  219  A    between atoms: _565  and  _566
REMARK  220  A    between atoms: _568  and  _570
REMARK  221  A    between atoms: _570  and  _571
REMARK  222  A    between atoms: _570  and  _573
REMARK  223  A    between atoms: _573  and  _574
REMARK  224  A    between atoms: _579  and  _580
REMARK  225  A    between atoms: _582  and  _584
REMARK  226  A    between atoms: _584  and  _585
REMARK  227  A    between atoms: _587  and  _589
REMARK  228  A    between atoms: _589  and  _590
REMARK  229  A    between atoms: _589  and  _592
REMARK  230  A    between atoms: _592  and  _593
REMARK  231  A    between atoms: _595  and  _597
REMARK  232  A    between atoms: _597  and  _598
REMARK  233  A    between atoms: _597  and  _600
REMARK  234  A    between atoms: _600  and  _601
REMARK  235  A    between atoms: _606  and  _608
REMARK  236  A    between atoms: _608  and  _609
REMARK  237  A    between atoms: _608  and  _611
REMARK  238  A    between atoms: _611  and  _612
REMARK  239  A    between atoms: _617  and  _618
REMARK                            x       y       z     vdW  Elec       q    Type
REMARK                         _______ _______ _______ _____ _____    ______ ____
ROOT
ATOM      1  O   HOH     1      -0.888 -12.406  -9.318  0.00  0.00    +0.000 OA
ENDROOT
TORSDOF 0
REMARK  Name = ../refined-set-2016/2qbw/2qbw_pocket.pdb
REMARK  239 active torsions:
REMARK  status: ('A' for Active; 'I' for Inactive)
REMARK    1  A    between atoms: _1  and  _5
REMARK    2  A    between atoms: _5  and  _6
REMARK    3  A    between atoms: _5  and  _8
REMARK    4  A    between atoms: _8  and  _9
REMARK    5  A    between atoms: _12  and  _13
REMARK    6  A    between atoms: _18  and  _20
REMARK    7  A    between atoms: _20  and  _21
REMARK    8  A    between atoms: _20  and  _23
REMARK    9  A    between atoms: _23  and  _24
REMARK   10  A    between atoms: _24  and  _25
REMARK   11  A    between atoms: _28  and  _30
REMARK   12  A    between atoms: _30  and  _31
REMARK   13  A    between atoms: _30  and  _33
REMARK   14  A    between atoms: _33  and  _34
REMARK   15  A    between atoms: _37  and  _39
REMARK   16  A    between atoms: _39  and  _40
REMARK   17  A    between atoms: _42  and  _44
REMARK   18  A    between atoms: _44  and  _45
REMARK   19  A    between atoms: _44  and  _47
REMARK   20  A    between atoms: _47  and  _48
REMARK   21  A    between atoms: _54  and  _56
REMARK   22  A    between atoms: _56  and  _57
REMARK   23  A    between atoms: _56  and  _59
REMARK   24  A    between atoms: _59  and  _60
REMARK   25  A    between atoms: _62  and  _64
REMARK   26  A    between atoms: _64  and  _65
REMARK   27  A    between atoms: _64  and  _67
REMARK   28  A    between atoms: _67  and  _68
REMARK   29  A    between atoms: _71  and  _73
REMARK   30  A    between atoms: _73  and  _74
REMARK   31  A    between atoms: _73  and  _76
REMARK   32  A    between atoms: _76  and  _77
REMARK   33  A    between atoms: _79  and  _81
REMARK   34  A    between atoms: _81  and  _82
REMARK   35  A    between atoms: _84  and  _86
REMARK   36  A    between atoms: _86  and  _87
REMARK   37  A    between atoms: _89  and  _91
REMARK   38  A    between atoms: _91  and  _92
REMARK   39  A    between atoms: _94  and  _96
REMARK   40  A    between atoms: _96  and  _97
REMARK   41  A    between atoms: _96  and  _99
REMARK   42  A    between atoms: _99  and  _100
REMARK   43  A    between atoms: _100  and  _101
REMARK   44  A    between atoms: _101  and  _102
REMARK   45  A    between atoms: _111  and  _113
REMARK   46  A    between atoms: _113  and  _114
REMARK   47  A    between atoms: _116  and  _118
REMARK   48  A    between atoms: _118  and  _119
REMARK   49  A    between atoms: _118  and  _121
REMARK   50  A    between atoms: _121  and  _122
REMARK   51  A    between atoms: _128  and  _129
REMARK   52  A    between atoms: _134  and  _136
REMARK   53  A    between atoms: _136  and  _137
REMARK   54  A    between atoms: _136  and  _139
REMARK   55  A    between atoms: _139  and  _140
REMARK   56  A    between atoms: _146  and  _148
REMARK   57  A    between atoms: _148  and  _149
REMARK   58  A    between atoms: _148  and  _151
REMARK   59  A    between atoms: _151  and  _152
REMARK   60  A    between atoms: _155  and  _157
REMARK   61  A    between atoms: _157  and  _158
REMARK   62  A    between atoms: _157  and  _160
REMARK   63  A    between atoms: _160  and  _161
REMARK   64  A    between atoms: _167  and  _169
REMARK   65  A    between atoms: _169  and  _170
REMARK   66  A    between atoms: _169  and  _172
REMARK   67  A    between atoms: _175  and  _177
REMARK   68  A    between atoms: _177  and  _178
REMARK   69  A    between atoms: _177  and  _180
REMARK   70  A    between atoms: _180  and  _181
REMARK   71  A    between atoms: _184  and  _186
REMARK   72  A    between atoms: _186  and  _187
REMARK   73  A    between atoms: _186  and  _189
REMARK   74  A    between atoms: _189  and  _190
REMARK   75  A    between atoms: _190  and  _191
REMARK   76  A    between atoms: _191  and  _192
REMARK   77  A    between atoms: _201  and  _203
REMARK   78  A    between atoms: _203  and  _204
REMARK   79  A    between atoms: _203  and  _206
REMARK   80  A    between atoms: _209  and  _211
REMARK   81  A    between atoms: _211  and  _212
REMARK   82  A    between atoms: _211  and  _214
REMARK   83  A    between atoms: _214  and  _215
REMARK   84  A    between atoms: _215  and  _216
REMARK   85  A    between atoms: _222  and  _223
REMARK   86  A    between atoms: _229  and  _230
REMARK   87  A    between atoms: _235  and  _237
REMARK   88  A    between atoms: _237  and  _238
REMARK   89  A    between atoms: _241  and  _243
REMARK   90  A    between atoms: _243  and  _244
REMARK   91  A    between atoms: _243  and  _246
REMARK   92  A    between atoms: _246  and  _247
REMARK   93  A    between atoms: _250  and  _252
REMARK   94  A    between atoms: _252  and  _253
REMARK   95  A    between atoms: _252  and  _255
REMARK   96  A    between atoms: _255  and  _256
REMARK   97  A    between atoms: _259  and  _261
REMARK   98  A    between atoms: _261  and  _262
REMARK   99  A    between atoms: _261  and  _264
REMARK  100  A    between atoms: _264  and  _265
REMARK  101  A    between atoms: _271  and  _273
REMARK  102  A    between atoms: _273  and  _274
REMARK  103  A    between atoms: _273  and  _276
REMARK  104  A    between atoms: _276  and  _277
REMARK  105  A    between atoms: _282  and  _284
REMARK  106  A    between atoms: _284  and  _285
REMARK  107  A    between atoms: _287  and  _289
REMARK  108  A    between atoms: _289  and  _290
REMARK  109  A    between atoms: _293  and  _295
REMARK  110  A    between atoms: _295  and  _296
REMARK  111  A    between atoms: _295  and  _298
REMARK  112  A    between atoms: _301  and  _303
REMARK  113  A    between atoms: _303  and  _304
REMARK  114  A    between atoms: _303  and  _306
REMARK  115  A    between atoms: _306  and  _307
REMARK  116  A    between atoms: _309  and  _311
REMARK  117  A    between atoms: _311  and  _312
REMARK  118  A    between atoms: _311  and  _314
REMARK  119  A    between atoms: _314  and  _315
REMARK  120  A    between atoms: _318  and  _320
REMARK  121  A    between atoms: _320  and  _321
REMARK  122  A    between atoms: _320  and  _323
REMARK  123  A    between atoms: _323  and  _324
REMARK  124  A    between atoms: _327  and  _329
REMARK  125  A    between atoms: _329  and  _330
REMARK  126  A    between atoms: _329  and  _332
REMARK  127  A    between atoms: _332  and  _333
REMARK  128  A    between atoms: _333  and  _334
REMARK  129  A    between atoms: _334  and  _335
REMARK  130  A    between atoms: _335  and  _336
REMARK  131  A    between atoms: _340  and  _342
REMARK  132  A    between atoms: _342  and  _343
REMARK  133  A    between atoms: _342  and  _345
REMARK  134  A    between atoms: _345  and  _346
REMARK  135  A    between atoms: _349  and  _351
REMARK  136  A    between atoms: _351  and  _352
REMARK  137  A    between atoms: _351  and  _354
REMARK  138  A    between atoms: _354  and  _355
REMARK  139  A    between atoms: _361  and  _363
REMARK  140  A    between atoms: _363  and  _364
REMARK  141  A    between atoms: _363  and  _366
REMARK  142  A    between atoms: _369  and  _371
REMARK  143  A    between atoms: _371  and  _372
REMARK  144  A    between atoms: _371  and  _374
REMARK  145  A    between atoms: _374  and  _375
REMARK  146  A    between atoms: _378  and  _380
REMARK  147  A    between atoms: _380  and  _381
REMARK  148  A    between atoms: _380  and  _383
REMARK  149  A    between atoms: _386  and  _388
REMARK  150  A    between atoms: _388  and  _389
REMARK  151  A    between atoms: _388  and  _391
REMARK  152  A    between atoms: _391  and  _392
REMARK  153  A    between atoms: _392  and  _393
REMARK  154  A    between atoms: _393  and  _394
REMARK  155  A    between atoms: _394  and  _395
REMARK  156  A    between atoms: _399  and  _401
REMARK  157  A    between atoms: _401  and  _402
REMARK  158  A    between atoms: _401  and  _404
REMARK  159  A    between atoms: _404  and  _405
REMARK  160  A    between atoms: _408  and  _410
REMARK  161  A    between atoms: _410  and  _411
REMARK  162  A    between atoms: _410  and  _413
REMARK  163  A    between atoms: _413  and  _414
REMARK  164  A    between atoms: _419  and  _420
REMARK  165  A    between atoms: _422  and  _424
REMARK  166  A    between atoms: _424  and  _425
REMARK  167  A    between atoms: _424  and  _427
REMARK  168  A    between atoms: _427  and  _428
REMARK  169  A    between atoms: _433  and  _434
REMARK  170  A    between atoms: _436  and  _438
REMARK  171  A    between atoms: _438  and  _439
REMARK  172  A    between atoms: _441  and  _443
REMARK  173  A    between atoms: _443  and  _444
REMARK  174  A    between atoms: _443  and  _446
REMARK  175  A    between atoms: _449  and  _451
REMARK  176  A    between atoms: _451  and  _452
REMARK  177  A    between atoms: _451  and  _454
REMARK  178  A    between atoms: _454  and  _455
REMARK  179  A    between atoms: _457  and  _459
REMARK  180  A    between atoms: _459  and  _460
REMARK  181  A    between atoms: _459  and  _462
REMARK  182  A    between atoms: _462  and  _463
REMARK  183  A    between atoms: _468  and  _469
REMARK  184  A    between atoms: _471  and  _473
REMARK  185  A    between atoms: _473  and  _474
REMARK  186  A    between atoms: _473  and  _476
REMARK  187  A    between atoms: _476  and  _477
REMARK  188  A    between atoms: _482  and  _483
REMARK  189  A    between atoms: _485  and  _487
REMARK  190  A    between atoms: _487  and  _488
REMARK  191  A    between atoms: _487  and  _490
REMARK  192  A    between atoms: _490  and  _491
REMARK  193  A    between atoms: _494  and  _496
REMARK  194  A    between atoms: _496  and  _497
REMARK  195  A    between atoms: _496  and  _499
REMARK  196  A    between atoms: _503  and  _504
REMARK  197  A    between atoms: _509  and  _511
REMARK  198  A    between atoms: _511  and  _512
REMARK  199  A    between atoms: _511  and  _514
REMARK  200  A    between atoms: _514  and  _515
REMARK  201  A    between atoms: _520  and  _521
REMARK  202  A    between atoms: _523  and  _525
REMARK  203  A    between atoms: _525  and  _526
REMARK  204  A    between atoms: _525  and  _528
REMARK  205  A    between atoms: _528  and  _529
REMARK  206  A    between atoms: _534  and  _535
REMARK  207  A    between atoms: _537  and  _539
REMARK  208  A    between atoms: _539  and  _540
REMARK  209  A    between atoms: _539  and  _542
REMARK  210  A    between atoms: _542  and  _543
REMARK  211  A    between atoms: _545  and  _547
REMARK  212  A    between atoms: _547  and  _548
REMARK  213  A    between atoms: _547  and  _550
REMARK  214  A    between atoms: _550  and  _551
REMARK  215  A    between atoms: _554  and  _556
REMARK  216  A    between atoms: _556  and  _557
REMARK  217  A    between atoms: _556  and  _559
REMARK  218  A    between atoms: _559  and  _560
REMARK  219  A    between atoms: _565  and  _566
REMARK  220  A    between atoms: _568  and  _570
REMARK  221  A    between atoms: _570  and  _571
REMARK  222  A    between atoms: _570  and  _573
REMARK  223  A    between atoms: _573  and  _574
REMARK  224  A    between atoms: _579  and  _580
REMARK  225  A    between atoms: _582  and  _584
REMARK  226  A    between atoms: _584  and  _585
REMARK  227  A    between atoms: _587  and  _589
REMARK  228  A    between atoms: _589  and  _590
REMARK  229  A    between atoms: _589  and  _592
REMARK  230  A    between atoms: _592  and  _593
REMARK  231  A    between atoms: _595  and  _597
REMARK  232  A    between atoms: _597  and  _598
REMARK  233  A    between atoms: _597  and  _600
REMARK  234  A    between atoms: _600  and  _601
REMARK  235  A    between atoms: _606  and  _608
REMARK  236  A    between atoms: _608  and  _609
REMARK  237  A    between atoms: _608  and  _611
REMARK  238  A    between atoms: _611  and  _612
REMARK  239  A    between atoms: _617  and  _618
REMARK                            x       y       z     vdW  Elec       q    Type
REMARK                         _______ _______ _______ _____ _____    ______ ____
ROOT
ATOM      1  O   HOH     1      -3.830 -12.879  -5.795  0.00  0.00    +0.000 OA
ENDROOT
TORSDOF 0
REMARK  Name = ../refined-set-2016/2qbw/2qbw_pocket.pdb
REMARK  239 active torsions:
REMARK  status: ('A' for Active; 'I' for Inactive)
REMARK    1  A    between atoms: _1  and  _5
REMARK    2  A    between atoms: _5  and  _6
REMARK    3  A    between atoms: _5  and  _8
REMARK    4  A    between atoms: _8  and  _9
REMARK    5  A    between atoms: _12  and  _13
REMARK    6  A    between atoms: _18  and  _20
REMARK    7  A    between atoms: _20  and  _21
REMARK    8  A    between atoms: _20  and  _23
REMARK    9  A    between atoms: _23  and  _24
REMARK   10  A    between atoms: _24  and  _25
REMARK   11  A    between atoms: _28  and  _30
REMARK   12  A    between atoms: _30  and  _31
REMARK   13  A    between atoms: _30  and  _33
REMARK   14  A    between atoms: _33  and  _34
REMARK   15  A    between atoms: _37  and  _39
REMARK   16  A    between atoms: _39  and  _40
REMARK   17  A    between atoms: _42  and  _44
REMARK   18  A    between atoms: _44  and  _45
REMARK   19  A    between atoms: _44  and  _47
REMARK   20  A    between atoms: _47  and  _48
REMARK   21  A    between atoms: _54  and  _56
REMARK   22  A    between atoms: _56  and  _57
REMARK   23  A    between atoms: _56  and  _59
REMARK   24  A    between atoms: _59  and  _60
REMARK   25  A    between atoms: _62  and  _64
REMARK   26  A    between atoms: _64  and  _65
REMARK   27  A    between atoms: _64  and  _67
REMARK   28  A    between atoms: _67  and  _68
REMARK   29  A    between atoms: _71  and  _73
REMARK   30  A    between atoms: _73  and  _74
REMARK   31  A    between atoms: _73  and  _76
REMARK   32  A    between atoms: _76  and  _77
REMARK   33  A    between atoms: _79  and  _81
REMARK   34  A    between atoms: _81  and  _82
REMARK   35  A    between atoms: _84  and  _86
REMARK   36  A    between atoms: _86  and  _87
REMARK   37  A    between atoms: _89  and  _91
REMARK   38  A    between atoms: _91  and  _92
REMARK   39  A    between atoms: _94  and  _96
REMARK   40  A    between atoms: _96  and  _97
REMARK   41  A    between atoms: _96  and  _99
REMARK   42  A    between atoms: _99  and  _100
REMARK   43  A    between atoms: _100  and  _101
REMARK   44  A    between atoms: _101  and  _102
REMARK   45  A    between atoms: _111  and  _113
REMARK   46  A    between atoms: _113  and  _114
REMARK   47  A    between atoms: _116  and  _118
REMARK   48  A    between atoms: _118  and  _119
REMARK   49  A    between atoms: _118  and  _121
REMARK   50  A    between atoms: _121  and  _122
REMARK   51  A    between atoms: _128  and  _129
REMARK   52  A    between atoms: _134  and  _136
REMARK   53  A    between atoms: _136  and  _137
REMARK   54  A    between atoms: _136  and  _139
REMARK   55  A    between atoms: _139  and  _140
REMARK   56  A    between atoms: _146  and  _148
REMARK   57  A    between atoms: _148  and  _149
REMARK   58  A    between atoms: _148  and  _151
REMARK   59  A    between atoms: _151  and  _152
REMARK   60  A    between atoms: _155  and  _157
REMARK   61  A    between atoms: _157  and  _158
REMARK   62  A    between atoms: _157  and  _160
REMARK   63  A    between atoms: _160  and  _161
REMARK   64  A    between atoms: _167  and  _169
REMARK   65  A    between atoms: _169  and  _170
REMARK   66  A    between atoms: _169  and  _172
REMARK   67  A    between atoms: _175  and  _177
REMARK   68  A    between atoms: _177  and  _178
REMARK   69  A    between atoms: _177  and  _180
REMARK   70  A    between atoms: _180  and  _181
REMARK   71  A    between atoms: _184  and  _186
REMARK   72  A    between atoms: _186  and  _187
REMARK   73  A    between atoms: _186  and  _189
REMARK   74  A    between atoms: _189  and  _190
REMARK   75  A    between atoms: _190  and  _191
REMARK   76  A    between atoms: _191  and  _192
REMARK   77  A    between atoms: _201  and  _203
REMARK   78  A    between atoms: _203  and  _204
REMARK   79  A    between atoms: _203  and  _206
REMARK   80  A    between atoms: _209  and  _211
REMARK   81  A    between atoms: _211  and  _212
REMARK   82  A    between atoms: _211  and  _214
REMARK   83  A    between atoms: _214  and  _215
REMARK   84  A    between atoms: _215  and  _216
REMARK   85  A    between atoms: _222  and  _223
REMARK   86  A    between atoms: _229  and  _230
REMARK   87  A    between atoms: _235  and  _237
REMARK   88  A    between atoms: _237  and  _238
REMARK   89  A    between atoms: _241  and  _243
REMARK   90  A    between atoms: _243  and  _244
REMARK   91  A    between atoms: _243  and  _246
REMARK   92  A    between atoms: _246  and  _247
REMARK   93  A    between atoms: _250  and  _252
REMARK   94  A    between atoms: _252  and  _253
REMARK   95  A    between atoms: _252  and  _255
REMARK   96  A    between atoms: _255  and  _256
REMARK   97  A    between atoms: _259  and  _261
REMARK   98  A    between atoms: _261  and  _262
REMARK   99  A    between atoms: _261  and  _264
REMARK  100  A    between atoms: _264  and  _265
REMARK  101  A    between atoms: _271  and  _273
REMARK  102  A    between atoms: _273  and  _274
REMARK  103  A    between atoms: _273  and  _276
REMARK  104  A    between atoms: _276  and  _277
REMARK  105  A    between atoms: _282  and  _284
REMARK  106  A    between atoms: _284  and  _285
REMARK  107  A    between atoms: _287  and  _289
REMARK  108  A    between atoms: _289  and  _290
REMARK  109  A    between atoms: _293  and  _295
REMARK  110  A    between atoms: _295  and  _296
REMARK  111  A    between atoms: _295  and  _298
REMARK  112  A    between atoms: _301  and  _303
REMARK  113  A    between atoms: _303  and  _304
REMARK  114  A    between atoms: _303  and  _306
REMARK  115  A    between atoms: _306  and  _307
REMARK  116  A    between atoms: _309  and  _311
REMARK  117  A    between atoms: _311  and  _312
REMARK  118  A    between atoms: _311  and  _314
REMARK  119  A    between atoms: _314  and  _315
REMARK  120  A    between atoms: _318  and  _320
REMARK  121  A    between atoms: _320  and  _321
REMARK  122  A    between atoms: _320  and  _323
REMARK  123  A    between atoms: _323  and  _324
REMARK  124  A    between atoms: _327  and  _329
REMARK  125  A    between atoms: _329  and  _330
REMARK  126  A    between atoms: _329  and  _332
REMARK  127  A    between atoms: _332  and  _333
REMARK  128  A    between atoms: _333  and  _334
REMARK  129  A    between atoms: _334  and  _335
REMARK  130  A    between atoms: _335  and  _336
REMARK  131  A    between atoms: _340  and  _342
REMARK  132  A    between atoms: _342  and  _343
REMARK  133  A    between atoms: _342  and  _345
REMARK  134  A    between atoms: _345  and  _346
REMARK  135  A    between atoms: _349  and  _351
REMARK  136  A    between atoms: _351  and  _352
REMARK  137  A    between atoms: _351  and  _354
REMARK  138  A    between atoms: _354  and  _355
REMARK  139  A    between atoms: _361  and  _363
REMARK  140  A    between atoms: _363  and  _364
REMARK  141  A    between atoms: _363  and  _366
REMARK  142  A    between atoms: _369  and  _371
REMARK  143  A    between atoms: _371  and  _372
REMARK  144  A    between atoms: _371  and  _374
REMARK  145  A    between atoms: _374  and  _375
REMARK  146  A    between atoms: _378  and  _380
REMARK  147  A    between atoms: _380  and  _381
REMARK  148  A    between atoms: _380  and  _383
REMARK  149  A    between atoms: _386  and  _388
REMARK  150  A    between atoms: _388  and  _389
REMARK  151  A    between atoms: _388  and  _391
REMARK  152  A    between atoms: _391  and  _392
REMARK  153  A    between atoms: _392  and  _393
REMARK  154  A    between atoms: _393  and  _394
REMARK  155  A    between atoms: _394  and  _395
REMARK  156  A    between atoms: _399  and  _401
REMARK  157  A    between atoms: _401  and  _402
REMARK  158  A    between atoms: _401  and  _404
REMARK  159  A    between atoms: _404  and  _405
REMARK  160  A    between atoms: _408  and  _410
REMARK  161  A    between atoms: _410  and  _411
REMARK  162  A    between atoms: _410  and  _413
REMARK  163  A    between atoms: _413  and  _414
REMARK  164  A    between atoms: _419  and  _420
REMARK  165  A    between atoms: _422  and  _424
REMARK  166  A    between atoms: _424  and  _425
REMARK  167  A    between atoms: _424  and  _427
REMARK  168  A    between atoms: _427  and  _428
REMARK  169  A    between atoms: _433  and  _434
REMARK  170  A    between atoms: _436  and  _438
REMARK  171  A    between atoms: _438  and  _439
REMARK  172  A    between atoms: _441  and  _443
REMARK  173  A    between atoms: _443  and  _444
REMARK  174  A    between atoms: _443  and  _446
REMARK  175  A    between atoms: _449  and  _451
REMARK  176  A    between atoms: _451  and  _452
REMARK  177  A    between atoms: _451  and  _454
REMARK  178  A    between atoms: _454  and  _455
REMARK  179  A    between atoms: _457  and  _459
REMARK  180  A    between atoms: _459  and  _460
REMARK  181  A    between atoms: _459  and  _462
REMARK  182  A    between atoms: _462  and  _463
REMARK  183  A    between atoms: _468  and  _469
REMARK  184  A    between atoms: _471  and  _473
REMARK  185  A    between atoms: _473  and  _474
REMARK  186  A    between atoms: _473  and  _476
REMARK  187  A    between atoms: _476  and  _477
REMARK  188  A    between atoms: _482  and  _483
REMARK  189  A    between atoms: _485  and  _487
REMARK  190  A    between atoms: _487  and  _488
REMARK  191  A    between atoms: _487  and  _490
REMARK  192  A    between atoms: _490  and  _491
REMARK  193  A    between atoms: _494  and  _496
REMARK  194  A    between atoms: _496  and  _497
REMARK  195  A    between atoms: _496  and  _499
REMARK  196  A    between atoms: _503  and  _504
REMARK  197  A    between atoms: _509  and  _511
REMARK  198  A    between atoms: _511  and  _512
REMARK  199  A    between atoms: _511  and  _514
REMARK  200  A    between atoms: _514  and  _515
REMARK  201  A    between atoms: _520  and  _521
REMARK  202  A    between atoms: _523  and  _525
REMARK  203  A    between atoms: _525  and  _526
REMARK  204  A    between atoms: _525  and  _528
REMARK  205  A    between atoms: _528  and  _529
REMARK  206  A    between atoms: _534  and  _535
REMARK  207  A    between atoms: _537  and  _539
REMARK  208  A    between atoms: _539  and  _540
REMARK  209  A    between atoms: _539  and  _542
REMARK  210  A    between atoms: _542  and  _543
REMARK  211  A    between atoms: _545  and  _547
REMARK  212  A    between atoms: _547  and  _548
REMARK  213  A    between atoms: _547  and  _550
REMARK  214  A    between atoms: _550  and  _551
REMARK  215  A    between atoms: _554  and  _556
REMARK  216  A    between atoms: _556  and  _557
REMARK  217  A    between atoms: _556  and  _559
REMARK  218  A    between atoms: _559  and  _560
REMARK  219  A    between atoms: _565  and  _566
REMARK  220  A    between atoms: _568  and  _570
REMARK  221  A    between atoms: _570  and  _571
REMARK  222  A    between atoms: _570  and  _573
REMARK  223  A    between atoms: _573  and  _574
REMARK  224  A    between atoms: _579  and  _580
REMARK  225  A    between atoms: _582  and  _584
REMARK  226  A    between atoms: _584  and  _585
REMARK  227  A    between atoms: _587  and  _589
REMARK  228  A    between atoms: _589  and  _590
REMARK  229  A    between atoms: _589  and  _592
REMARK  230  A    between atoms: _592  and  _593
REMARK  231  A    between atoms: _595  and  _597
REMARK  232  A    between atoms: _597  and  _598
REMARK  233  A    between atoms: _597  and  _600
REMARK  234  A    between atoms: _600  and  _601
REMARK  235  A    between atoms: _606  and  _608
REMARK  236  A    between atoms: _608  and  _609
REMARK  237  A    between atoms: _608  and  _611
REMARK  238  A    between atoms: _611  and  _612
REMARK  239  A    between atoms: _617  and  _618
REMARK                            x       y       z     vdW  Elec       q    Type
REMARK                         _______ _______ _______ _____ _____    ______ ____
ROOT
ATOM      1  O   HOH     1      10.915   1.914  -7.852  0.00  0.00    +0.000 OA
ENDROOT
TORSDOF 0
REMARK  Name = ../refined-set-2016/2qbw/2qbw_pocket.pdb
REMARK  239 active torsions:
REMARK  status: ('A' for Active; 'I' for Inactive)
REMARK    1  A    between atoms: _1  and  _5
REMARK    2  A    between atoms: _5  and  _6
REMARK    3  A    between atoms: _5  and  _8
REMARK    4  A    between atoms: _8  and  _9
REMARK    5  A    between atoms: _12  and  _13
REMARK    6  A    between atoms: _18  and  _20
REMARK    7  A    between atoms: _20  and  _21
REMARK    8  A    between atoms: _20  and  _23
REMARK    9  A    between atoms: _23  and  _24
REMARK   10  A    between atoms: _24  and  _25
REMARK   11  A    between atoms: _28  and  _30
REMARK   12  A    between atoms: _30  and  _31
REMARK   13  A    between atoms: _30  and  _33
REMARK   14  A    between atoms: _33  and  _34
REMARK   15  A    between atoms: _37  and  _39
REMARK   16  A    between atoms: _39  and  _40
REMARK   17  A    between atoms: _42  and  _44
REMARK   18  A    between atoms: _44  and  _45
REMARK   19  A    between atoms: _44  and  _47
REMARK   20  A    between atoms: _47  and  _48
REMARK   21  A    between atoms: _54  and  _56
REMARK   22  A    between atoms: _56  and  _57
REMARK   23  A    between atoms: _56  and  _59
REMARK   24  A    between atoms: _59  and  _60
REMARK   25  A    between atoms: _62  and  _64
REMARK   26  A    between atoms: _64  and  _65
REMARK   27  A    between atoms: _64  and  _67
REMARK   28  A    between atoms: _67  and  _68
REMARK   29  A    between atoms: _71  and  _73
REMARK   30  A    between atoms: _73  and  _74
REMARK   31  A    between atoms: _73  and  _76
REMARK   32  A    between atoms: _76  and  _77
REMARK   33  A    between atoms: _79  and  _81
REMARK   34  A    between atoms: _81  and  _82
REMARK   35  A    between atoms: _84  and  _86
REMARK   36  A    between atoms: _86  and  _87
REMARK   37  A    between atoms: _89  and  _91
REMARK   38  A    between atoms: _91  and  _92
REMARK   39  A    between atoms: _94  and  _96
REMARK   40  A    between atoms: _96  and  _97
REMARK   41  A    between atoms: _96  and  _99
REMARK   42  A    between atoms: _99  and  _100
REMARK   43  A    between atoms: _100  and  _101
REMARK   44  A    between atoms: _101  and  _102
REMARK   45  A    between atoms: _111  and  _113
REMARK   46  A    between atoms: _113  and  _114
REMARK   47  A    between atoms: _116  and  _118
REMARK   48  A    between atoms: _118  and  _119
REMARK   49  A    between atoms: _118  and  _121
REMARK   50  A    between atoms: _121  and  _122
REMARK   51  A    between atoms: _128  and  _129
REMARK   52  A    between atoms: _134  and  _136
REMARK   53  A    between atoms: _136  and  _137
REMARK   54  A    between atoms: _136  and  _139
REMARK   55  A    between atoms: _139  and  _140
REMARK   56  A    between atoms: _146  and  _148
REMARK   57  A    between atoms: _148  and  _149
REMARK   58  A    between atoms: _148  and  _151
REMARK   59  A    between atoms: _151  and  _152
REMARK   60  A    between atoms: _155  and  _157
REMARK   61  A    between atoms: _157  and  _158
REMARK   62  A    between atoms: _157  and  _160
REMARK   63  A    between atoms: _160  and  _161
REMARK   64  A    between atoms: _167  and  _169
REMARK   65  A    between atoms: _169  and  _170
REMARK   66  A    between atoms: _169  and  _172
REMARK   67  A    between atoms: _175  and  _177
REMARK   68  A    between atoms: _177  and  _178
REMARK   69  A    between atoms: _177  and  _180
REMARK   70  A    between atoms: _180  and  _181
REMARK   71  A    between atoms: _184  and  _186
REMARK   72  A    between atoms: _186  and  _187
REMARK   73  A    between atoms: _186  and  _189
REMARK   74  A    between atoms: _189  and  _190
REMARK   75  A    between atoms: _190  and  _191
REMARK   76  A    between atoms: _191  and  _192
REMARK   77  A    between atoms: _201  and  _203
REMARK   78  A    between atoms: _203  and  _204
REMARK   79  A    between atoms: _203  and  _206
REMARK   80  A    between atoms: _209  and  _211
REMARK   81  A    between atoms: _211  and  _212
REMARK   82  A    between atoms: _211  and  _214
REMARK   83  A    between atoms: _214  and  _215
REMARK   84  A    between atoms: _215  and  _216
REMARK   85  A    between atoms: _222  and  _223
REMARK   86  A    between atoms: _229  and  _230
REMARK   87  A    between atoms: _235  and  _237
REMARK   88  A    between atoms: _237  and  _238
REMARK   89  A    between atoms: _241  and  _243
REMARK   90  A    between atoms: _243  and  _244
REMARK   91  A    between atoms: _243  and  _246
REMARK   92  A    between atoms: _246  and  _247
REMARK   93  A    between atoms: _250  and  _252
REMARK   94  A    between atoms: _252  and  _253
REMARK   95  A    between atoms: _252  and  _255
REMARK   96  A    between atoms: _255  and  _256
REMARK   97  A    between atoms: _259  and  _261
REMARK   98  A    between atoms: _261  and  _262
REMARK   99  A    between atoms: _261  and  _264
REMARK  100  A    between atoms: _264  and  _265
REMARK  101  A    between atoms: _271  and  _273
REMARK  102  A    between atoms: _273  and  _274
REMARK  103  A    between atoms: _273  and  _276
REMARK  104  A    between atoms: _276  and  _277
REMARK  105  A    between atoms: _282  and  _284
REMARK  106  A    between atoms: _284  and  _285
REMARK  107  A    between atoms: _287  and  _289
REMARK  108  A    between atoms: _289  and  _290
REMARK  109  A    between atoms: _293  and  _295
REMARK  110  A    between atoms: _295  and  _296
REMARK  111  A    between atoms: _295  and  _298
REMARK  112  A    between atoms: _301  and  _303
REMARK  113  A    between atoms: _303  and  _304
REMARK  114  A    between atoms: _303  and  _306
REMARK  115  A    between atoms: _306  and  _307
REMARK  116  A    between atoms: _309  and  _311
REMARK  117  A    between atoms: _311  and  _312
REMARK  118  A    between atoms: _311  and  _314
REMARK  119  A    between atoms: _314  and  _315
REMARK  120  A    between atoms: _318  and  _320
REMARK  121  A    between atoms: _320  and  _321
REMARK  122  A    between atoms: _320  and  _323
REMARK  123  A    between atoms: _323  and  _324
REMARK  124  A    between atoms: _327  and  _329
REMARK  125  A    between atoms: _329  and  _330
REMARK  126  A    between atoms: _329  and  _332
REMARK  127  A    between atoms: _332  and  _333
REMARK  128  A    between atoms: _333  and  _334
REMARK  129  A    between atoms: _334  and  _335
REMARK  130  A    between atoms: _335  and  _336
REMARK  131  A    between atoms: _340  and  _342
REMARK  132  A    between atoms: _342  and  _343
REMARK  133  A    between atoms: _342  and  _345
REMARK  134  A    between atoms: _345  and  _346
REMARK  135  A    between atoms: _349  and  _351
REMARK  136  A    between atoms: _351  and  _352
REMARK  137  A    between atoms: _351  and  _354
REMARK  138  A    between atoms: _354  and  _355
REMARK  139  A    between atoms: _361  and  _363
REMARK  140  A    between atoms: _363  and  _364
REMARK  141  A    between atoms: _363  and  _366
REMARK  142  A    between atoms: _369  and  _371
REMARK  143  A    between atoms: _371  and  _372
REMARK  144  A    between atoms: _371  and  _374
REMARK  145  A    between atoms: _374  and  _375
REMARK  146  A    between atoms: _378  and  _380
REMARK  147  A    between atoms: _380  and  _381
REMARK  148  A    between atoms: _380  and  _383
REMARK  149  A    between atoms: _386  and  _388
REMARK  150  A    between atoms: _388  and  _389
REMARK  151  A    between atoms: _388  and  _391
REMARK  152  A    between atoms: _391  and  _392
REMARK  153  A    between atoms: _392  and  _393
REMARK  154  A    between atoms: _393  and  _394
REMARK  155  A    between atoms: _394  and  _395
REMARK  156  A    between atoms: _399  and  _401
REMARK  157  A    between atoms: _401  and  _402
REMARK  158  A    between atoms: _401  and  _404
REMARK  159  A    between atoms: _404  and  _405
REMARK  160  A    between atoms: _408  and  _410
REMARK  161  A    between atoms: _410  and  _411
REMARK  162  A    between atoms: _410  and  _413
REMARK  163  A    between atoms: _413  and  _414
REMARK  164  A    between atoms: _419  and  _420
REMARK  165  A    between atoms: _422  and  _424
REMARK  166  A    between atoms: _424  and  _425
REMARK  167  A    between atoms: _424  and  _427
REMARK  168  A    between atoms: _427  and  _428
REMARK  169  A    between atoms: _433  and  _434
REMARK  170  A    between atoms: _436  and  _438
REMARK  171  A    between atoms: _438  and  _439
REMARK  172  A    between atoms: _441  and  _443
REMARK  173  A    between atoms: _443  and  _444
REMARK  174  A    between atoms: _443  and  _446
REMARK  175  A    between atoms: _449  and  _451
REMARK  176  A    between atoms: _451  and  _452
REMARK  177  A    between atoms: _451  and  _454
REMARK  178  A    between atoms: _454  and  _455
REMARK  179  A    between atoms: _457  and  _459
REMARK  180  A    between atoms: _459  and  _460
REMARK  181  A    between atoms: _459  and  _462
REMARK  182  A    between atoms: _462  and  _463
REMARK  183  A    between atoms: _468  and  _469
REMARK  184  A    between atoms: _471  and  _473
REMARK  185  A    between atoms: _473  and  _474
REMARK  186  A    between atoms: _473  and  _476
REMARK  187  A    between atoms: _476  and  _477
REMARK  188  A    between atoms: _482  and  _483
REMARK  189  A    between atoms: _485  and  _487
REMARK  190  A    between atoms: _487  and  _488
REMARK  191  A    between atoms: _487  and  _490
REMARK  192  A    between atoms: _490  and  _491
REMARK  193  A    between atoms: _494  and  _496
REMARK  194  A    between atoms: _496  and  _497
REMARK  195  A    between atoms: _496  and  _499
REMARK  196  A    between atoms: _503  and  _504
REMARK  197  A    between atoms: _509  and  _511
REMARK  198  A    between atoms: _511  and  _512
REMARK  199  A    between atoms: _511  and  _514
REMARK  200  A    between atoms: _514  and  _515
REMARK  201  A    between atoms: _520  and  _521
REMARK  202  A    between atoms: _523  and  _525
REMARK  203  A    between atoms: _525  and  _526
REMARK  204  A    between atoms: _525  and  _528
REMARK  205  A    between atoms: _528  and  _529
REMARK  206  A    between atoms: _534  and  _535
REMARK  207  A    between atoms: _537  and  _539
REMARK  208  A    between atoms: _539  and  _540
REMARK  209  A    between atoms: _539  and  _542
REMARK  210  A    between atoms: _542  and  _543
REMARK  211  A    between atoms: _545  and  _547
REMARK  212  A    between atoms: _547  and  _548
REMARK  213  A    between atoms: _547  and  _550
REMARK  214  A    between atoms: _550  and  _551
REMARK  215  A    between atoms: _554  and  _556
REMARK  216  A    between atoms: _556  and  _557
REMARK  217  A    between atoms: _556  and  _559
REMARK  218  A    between atoms: _559  and  _560
REMARK  219  A    between atoms: _565  and  _566
REMARK  220  A    between atoms: _568  and  _570
REMARK  221  A    between atoms: _570  and  _571
REMARK  222  A    between atoms: _570  and  _573
REMARK  223  A    between atoms: _573  and  _574
REMARK  224  A    between atoms: _579  and  _580
REMARK  225  A    between atoms: _582  and  _584
REMARK  226  A    between atoms: _584  and  _585
REMARK  227  A    between atoms: _587  and  _589
REMARK  228  A    between atoms: _589  and  _590
REMARK  229  A    between atoms: _589  and  _592
REMARK  230  A    between atoms: _592  and  _593
REMARK  231  A    between atoms: _595  and  _597
REMARK  232  A    between atoms: _597  and  _598
REMARK  233  A    between atoms: _597  and  _600
REMARK  234  A    between atoms: _600  and  _601
REMARK  235  A    between atoms: _606  and  _608
REMARK  236  A    between atoms: _608  and  _609
REMARK  237  A    between atoms: _608  and  _611
REMARK  238  A    between atoms: _611  and  _612
REMARK  239  A    between atoms: _617  and  _618
REMARK                            x       y       z     vdW  Elec       q    Type
REMARK                         _______ _______ _______ _____ _____    ______ ____
ROOT
ATOM      1  O   HOH     1       4.161   0.816  -8.192  0.00  0.00    +0.000 OA
ENDROOT
TORSDOF 0
REMARK  Name = ../refined-set-2016/2qbw/2qbw_pocket.pdb
REMARK  239 active torsions:
REMARK  status: ('A' for Active; 'I' for Inactive)
REMARK    1  A    between atoms: _1  and  _5
REMARK    2  A    between atoms: _5  and  _6
REMARK    3  A    between atoms: _5  and  _8
REMARK    4  A    between atoms: _8  and  _9
REMARK    5  A    between atoms: _12  and  _13
REMARK    6  A    between atoms: _18  and  _20
REMARK    7  A    between atoms: _20  and  _21
REMARK    8  A    between atoms: _20  and  _23
REMARK    9  A    between atoms: _23  and  _24
REMARK   10  A    between atoms: _24  and  _25
REMARK   11  A    between atoms: _28  and  _30
REMARK   12  A    between atoms: _30  and  _31
REMARK   13  A    between atoms: _30  and  _33
REMARK   14  A    between atoms: _33  and  _34
REMARK   15  A    between atoms: _37  and  _39
REMARK   16  A    between atoms: _39  and  _40
REMARK   17  A    between atoms: _42  and  _44
REMARK   18  A    between atoms: _44  and  _45
REMARK   19  A    between atoms: _44  and  _47
REMARK   20  A    between atoms: _47  and  _48
REMARK   21  A    between atoms: _54  and  _56
REMARK   22  A    between atoms: _56  and  _57
REMARK   23  A    between atoms: _56  and  _59
REMARK   24  A    between atoms: _59  and  _60
REMARK   25  A    between atoms: _62  and  _64
REMARK   26  A    between atoms: _64  and  _65
REMARK   27  A    between atoms: _64  and  _67
REMARK   28  A    between atoms: _67  and  _68
REMARK   29  A    between atoms: _71  and  _73
REMARK   30  A    between atoms: _73  and  _74
REMARK   31  A    between atoms: _73  and  _76
REMARK   32  A    between atoms: _76  and  _77
REMARK   33  A    between atoms: _79  and  _81
REMARK   34  A    between atoms: _81  and  _82
REMARK   35  A    between atoms: _84  and  _86
REMARK   36  A    between atoms: _86  and  _87
REMARK   37  A    between atoms: _89  and  _91
REMARK   38  A    between atoms: _91  and  _92
REMARK   39  A    between atoms: _94  and  _96
REMARK   40  A    between atoms: _96  and  _97
REMARK   41  A    between atoms: _96  and  _99
REMARK   42  A    between atoms: _99  and  _100
REMARK   43  A    between atoms: _100  and  _101
REMARK   44  A    between atoms: _101  and  _102
REMARK   45  A    between atoms: _111  and  _113
REMARK   46  A    between atoms: _113  and  _114
REMARK   47  A    between atoms: _116  and  _118
REMARK   48  A    between atoms: _118  and  _119
REMARK   49  A    between atoms: _118  and  _121
REMARK   50  A    between atoms: _121  and  _122
REMARK   51  A    between atoms: _128  and  _129
REMARK   52  A    between atoms: _134  and  _136
REMARK   53  A    between atoms: _136  and  _137
REMARK   54  A    between atoms: _136  and  _139
REMARK   55  A    between atoms: _139  and  _140
REMARK   56  A    between atoms: _146  and  _148
REMARK   57  A    between atoms: _148  and  _149
REMARK   58  A    between atoms: _148  and  _151
REMARK   59  A    between atoms: _151  and  _152
REMARK   60  A    between atoms: _155  and  _157
REMARK   61  A    between atoms: _157  and  _158
REMARK   62  A    between atoms: _157  and  _160
REMARK   63  A    between atoms: _160  and  _161
REMARK   64  A    between atoms: _167  and  _169
REMARK   65  A    between atoms: _169  and  _170
REMARK   66  A    between atoms: _169  and  _172
REMARK   67  A    between atoms: _175  and  _177
REMARK   68  A    between atoms: _177  and  _178
REMARK   69  A    between atoms: _177  and  _180
REMARK   70  A    between atoms: _180  and  _181
REMARK   71  A    between atoms: _184  and  _186
REMARK   72  A    between atoms: _186  and  _187
REMARK   73  A    between atoms: _186  and  _189
REMARK   74  A    between atoms: _189  and  _190
REMARK   75  A    between atoms: _190  and  _191
REMARK   76  A    between atoms: _191  and  _192
REMARK   77  A    between atoms: _201  and  _203
REMARK   78  A    between atoms: _203  and  _204
REMARK   79  A    between atoms: _203  and  _206
REMARK   80  A    between atoms: _209  and  _211
REMARK   81  A    between atoms: _211  and  _212
REMARK   82  A    between atoms: _211  and  _214
REMARK   83  A    between atoms: _214  and  _215
REMARK   84  A    between atoms: _215  and  _216
REMARK   85  A    between atoms: _222  and  _223
REMARK   86  A    between atoms: _229  and  _230
REMARK   87  A    between atoms: _235  and  _237
REMARK   88  A    between atoms: _237  and  _238
REMARK   89  A    between atoms: _241  and  _243
REMARK   90  A    between atoms: _243  and  _244
REMARK   91  A    between atoms: _243  and  _246
REMARK   92  A    between atoms: _246  and  _247
REMARK   93  A    between atoms: _250  and  _252
REMARK   94  A    between atoms: _252  and  _253
REMARK   95  A    between atoms: _252  and  _255
REMARK   96  A    between atoms: _255  and  _256
REMARK   97  A    between atoms: _259  and  _261
REMARK   98  A    between atoms: _261  and  _262
REMARK   99  A    between atoms: _261  and  _264
REMARK  100  A    between atoms: _264  and  _265
REMARK  101  A    between atoms: _271  and  _273
REMARK  102  A    between atoms: _273  and  _274
REMARK  103  A    between atoms: _273  and  _276
REMARK  104  A    between atoms: _276  and  _277
REMARK  105  A    between atoms: _282  and  _284
REMARK  106  A    between atoms: _284  and  _285
REMARK  107  A    between atoms: _287  and  _289
REMARK  108  A    between atoms: _289  and  _290
REMARK  109  A    between atoms: _293  and  _295
REMARK  110  A    between atoms: _295  and  _296
REMARK  111  A    between atoms: _295  and  _298
REMARK  112  A    between atoms: _301  and  _303
REMARK  113  A    between atoms: _303  and  _304
REMARK  114  A    between atoms: _303  and  _306
REMARK  115  A    between atoms: _306  and  _307
REMARK  116  A    between atoms: _309  and  _311
REMARK  117  A    between atoms: _311  and  _312
REMARK  118  A    between atoms: _311  and  _314
REMARK  119  A    between atoms: _314  and  _315
REMARK  120  A    between atoms: _318  and  _320
REMARK  121  A    between atoms: _320  and  _321
REMARK  122  A    between atoms: _320  and  _323
REMARK  123  A    between atoms: _323  and  _324
REMARK  124  A    between atoms: _327  and  _329
REMARK  125  A    between atoms: _329  and  _330
REMARK  126  A    between atoms: _329  and  _332
REMARK  127  A    between atoms: _332  and  _333
REMARK  128  A    between atoms: _333  and  _334
REMARK  129  A    between atoms: _334  and  _335
REMARK  130  A    between atoms: _335  and  _336
REMARK  131  A    between atoms: _340  and  _342
REMARK  132  A    between atoms: _342  and  _343
REMARK  133  A    between atoms: _342  and  _345
REMARK  134  A    between atoms: _345  and  _346
REMARK  135  A    between atoms: _349  and  _351
REMARK  136  A    between atoms: _351  and  _352
REMARK  137  A    between atoms: _351  and  _354
REMARK  138  A    between atoms: _354  and  _355
REMARK  139  A    between atoms: _361  and  _363
REMARK  140  A    between atoms: _363  and  _364
REMARK  141  A    between atoms: _363  and  _366
REMARK  142  A    between atoms: _369  and  _371
REMARK  143  A    between atoms: _371  and  _372
REMARK  144  A    between atoms: _371  and  _374
REMARK  145  A    between atoms: _374  and  _375
REMARK  146  A    between atoms: _378  and  _380
REMARK  147  A    between atoms: _380  and  _381
REMARK  148  A    between atoms: _380  and  _383
REMARK  149  A    between atoms: _386  and  _388
REMARK  150  A    between atoms: _388  and  _389
REMARK  151  A    between atoms: _388  and  _391
REMARK  152  A    between atoms: _391  and  _392
REMARK  153  A    between atoms: _392  and  _393
REMARK  154  A    between atoms: _393  and  _394
REMARK  155  A    between atoms: _394  and  _395
REMARK  156  A    between atoms: _399  and  _401
REMARK  157  A    between atoms: _401  and  _402
REMARK  158  A    between atoms: _401  and  _404
REMARK  159  A    between atoms: _404  and  _405
REMARK  160  A    between atoms: _408  and  _410
REMARK  161  A    between atoms: _410  and  _411
REMARK  162  A    between atoms: _410  and  _413
REMARK  163  A    between atoms: _413  and  _414
REMARK  164  A    between atoms: _419  and  _420
REMARK  165  A    between atoms: _422  and  _424
REMARK  166  A    between atoms: _424  and  _425
REMARK  167  A    between atoms: _424  and  _427
REMARK  168  A    between atoms: _427  and  _428
REMARK  169  A    between atoms: _433  and  _434
REMARK  170  A    between atoms: _436  and  _438
REMARK  171  A    between atoms: _438  and  _439
REMARK  172  A    between atoms: _441  and  _443
REMARK  173  A    between atoms: _443  and  _444
REMARK  174  A    between atoms: _443  and  _446
REMARK  175  A    between atoms: _449  and  _451
REMARK  176  A    between atoms: _451  and  _452
REMARK  177  A    between atoms: _451  and  _454
REMARK  178  A    between atoms: _454  and  _455
REMARK  179  A    between atoms: _457  and  _459
REMARK  180  A    between atoms: _459  and  _460
REMARK  181  A    between atoms: _459  and  _462
REMARK  182  A    between atoms: _462  and  _463
REMARK  183  A    between atoms: _468  and  _469
REMARK  184  A    between atoms: _471  and  _473
REMARK  185  A    between atoms: _473  and  _474
REMARK  186  A    between atoms: _473  and  _476
REMARK  187  A    between atoms: _476  and  _477
REMARK  188  A    between atoms: _482  and  _483
REMARK  189  A    between atoms: _485  and  _487
REMARK  190  A    between atoms: _487  and  _488
REMARK  191  A    between atoms: _487  and  _490
REMARK  192  A    between atoms: _490  and  _491
REMARK  193  A    between atoms: _494  and  _496
REMARK  194  A    between atoms: _496  and  _497
REMARK  195  A    between atoms: _496  and  _499
REMARK  196  A    between atoms: _503  and  _504
REMARK  197  A    between atoms: _509  and  _511
REMARK  198  A    between atoms: _511  and  _512
REMARK  199  A    between atoms: _511  and  _514
REMARK  200  A    between atoms: _514  and  _515
REMARK  201  A    between atoms: _520  and  _521
REMARK  202  A    between atoms: _523  and  _525
REMARK  203  A    between atoms: _525  and  _526
REMARK  204  A    between atoms: _525  and  _528
REMARK  205  A    between atoms: _528  and  _529
REMARK  206  A    between atoms: _534  and  _535
REMARK  207  A    between atoms: _537  and  _539
REMARK  208  A    between atoms: _539  and  _540
REMARK  209  A    between atoms: _539  and  _542
REMARK  210  A    between atoms: _542  and  _543
REMARK  211  A    between atoms: _545  and  _547
REMARK  212  A    between atoms: _547  and  _548
REMARK  213  A    between atoms: _547  and  _550
REMARK  214  A    between atoms: _550  and  _551
REMARK  215  A    between atoms: _554  and  _556
REMARK  216  A    between atoms: _556  and  _557
REMARK  217  A    between atoms: _556  and  _559
REMARK  218  A    between atoms: _559  and  _560
REMARK  219  A    between atoms: _565  and  _566
REMARK  220  A    between atoms: _568  and  _570
REMARK  221  A    between atoms: _570  and  _571
REMARK  222  A    between atoms: _570  and  _573
REMARK  223  A    between atoms: _573  and  _574
REMARK  224  A    between atoms: _579  and  _580
REMARK  225  A    between atoms: _582  and  _584
REMARK  226  A    between atoms: _584  and  _585
REMARK  227  A    between atoms: _587  and  _589
REMARK  228  A    between atoms: _589  and  _590
REMARK  229  A    between atoms: _589  and  _592
REMARK  230  A    between atoms: _592  and  _593
REMARK  231  A    between atoms: _595  and  _597
REMARK  232  A    between atoms: _597  and  _598
REMARK  233  A    between atoms: _597  and  _600
REMARK  234  A    between atoms: _600  and  _601
REMARK  235  A    between atoms: _606  and  _608
REMARK  236  A    between atoms: _608  and  _609
REMARK  237  A    between atoms: _608  and  _611
REMARK  238  A    between atoms: _611  and  _612
REMARK  239  A    between atoms: _617  and  _618
REMARK                            x       y       z     vdW  Elec       q    Type
REMARK                         _______ _______ _______ _____ _____    ______ ____
ROOT
ATOM      1  O   HOH     1      -6.423 -12.941  -5.848  0.00  0.00    +0.000 OA
ENDROOT
TORSDOF 0
REMARK  Name = ../refined-set-2016/2qbw/2qbw_pocket.pdb
REMARK  239 active torsions:
REMARK  status: ('A' for Active; 'I' for Inactive)
REMARK    1  A    between atoms: _1  and  _5
REMARK    2  A    between atoms: _5  and  _6
REMARK    3  A    between atoms: _5  and  _8
REMARK    4  A    between atoms: _8  and  _9
REMARK    5  A    between atoms: _12  and  _13
REMARK    6  A    between atoms: _18  and  _20
REMARK    7  A    between atoms: _20  and  _21
REMARK    8  A    between atoms: _20  and  _23
REMARK    9  A    between atoms: _23  and  _24
REMARK   10  A    between atoms: _24  and  _25
REMARK   11  A    between atoms: _28  and  _30
REMARK   12  A    between atoms: _30  and  _31
REMARK   13  A    between atoms: _30  and  _33
REMARK   14  A    between atoms: _33  and  _34
REMARK   15  A    between atoms: _37  and  _39
REMARK   16  A    between atoms: _39  and  _40
REMARK   17  A    between atoms: _42  and  _44
REMARK   18  A    between atoms: _44  and  _45
REMARK   19  A    between atoms: _44  and  _47
REMARK   20  A    between atoms: _47  and  _48
REMARK   21  A    between atoms: _54  and  _56
REMARK   22  A    between atoms: _56  and  _57
REMARK   23  A    between atoms: _56  and  _59
REMARK   24  A    between atoms: _59  and  _60
REMARK   25  A    between atoms: _62  and  _64
REMARK   26  A    between atoms: _64  and  _65
REMARK   27  A    between atoms: _64  and  _67
REMARK   28  A    between atoms: _67  and  _68
REMARK   29  A    between atoms: _71  and  _73
REMARK   30  A    between atoms: _73  and  _74
REMARK   31  A    between atoms: _73  and  _76
REMARK   32  A    between atoms: _76  and  _77
REMARK   33  A    between atoms: _79  and  _81
REMARK   34  A    between atoms: _81  and  _82
REMARK   35  A    between atoms: _84  and  _86
REMARK   36  A    between atoms: _86  and  _87
REMARK   37  A    between atoms: _89  and  _91
REMARK   38  A    between atoms: _91  and  _92
REMARK   39  A    between atoms: _94  and  _96
REMARK   40  A    between atoms: _96  and  _97
REMARK   41  A    between atoms: _96  and  _99
REMARK   42  A    between atoms: _99  and  _100
REMARK   43  A    between atoms: _100  and  _101
REMARK   44  A    between atoms: _101  and  _102
REMARK   45  A    between atoms: _111  and  _113
REMARK   46  A    between atoms: _113  and  _114
REMARK   47  A    between atoms: _116  and  _118
REMARK   48  A    between atoms: _118  and  _119
REMARK   49  A    between atoms: _118  and  _121
REMARK   50  A    between atoms: _121  and  _122
REMARK   51  A    between atoms: _128  and  _129
REMARK   52  A    between atoms: _134  and  _136
REMARK   53  A    between atoms: _136  and  _137
REMARK   54  A    between atoms: _136  and  _139
REMARK   55  A    between atoms: _139  and  _140
REMARK   56  A    between atoms: _146  and  _148
REMARK   57  A    between atoms: _148  and  _149
REMARK   58  A    between atoms: _148  and  _151
REMARK   59  A    between atoms: _151  and  _152
REMARK   60  A    between atoms: _155  and  _157
REMARK   61  A    between atoms: _157  and  _158
REMARK   62  A    between atoms: _157  and  _160
REMARK   63  A    between atoms: _160  and  _161
REMARK   64  A    between atoms: _167  and  _169
REMARK   65  A    between atoms: _169  and  _170
REMARK   66  A    between atoms: _169  and  _172
REMARK   67  A    between atoms: _175  and  _177
REMARK   68  A    between atoms: _177  and  _178
REMARK   69  A    between atoms: _177  and  _180
REMARK   70  A    between atoms: _180  and  _181
REMARK   71  A    between atoms: _184  and  _186
REMARK   72  A    between atoms: _186  and  _187
REMARK   73  A    between atoms: _186  and  _189
REMARK   74  A    between atoms: _189  and  _190
REMARK   75  A    between atoms: _190  and  _191
REMARK   76  A    between atoms: _191  and  _192
REMARK   77  A    between atoms: _201  and  _203
REMARK   78  A    between atoms: _203  and  _204
REMARK   79  A    between atoms: _203  and  _206
REMARK   80  A    between atoms: _209  and  _211
REMARK   81  A    between atoms: _211  and  _212
REMARK   82  A    between atoms: _211  and  _214
REMARK   83  A    between atoms: _214  and  _215
REMARK   84  A    between atoms: _215  and  _216
REMARK   85  A    between atoms: _222  and  _223
REMARK   86  A    between atoms: _229  and  _230
REMARK   87  A    between atoms: _235  and  _237
REMARK   88  A    between atoms: _237  and  _238
REMARK   89  A    between atoms: _241  and  _243
REMARK   90  A    between atoms: _243  and  _244
REMARK   91  A    between atoms: _243  and  _246
REMARK   92  A    between atoms: _246  and  _247
REMARK   93  A    between atoms: _250  and  _252
REMARK   94  A    between atoms: _252  and  _253
REMARK   95  A    between atoms: _252  and  _255
REMARK   96  A    between atoms: _255  and  _256
REMARK   97  A    between atoms: _259  and  _261
REMARK   98  A    between atoms: _261  and  _262
REMARK   99  A    between atoms: _261  and  _264
REMARK  100  A    between atoms: _264  and  _265
REMARK  101  A    between atoms: _271  and  _273
REMARK  102  A    between atoms: _273  and  _274
REMARK  103  A    between atoms: _273  and  _276
REMARK  104  A    between atoms: _276  and  _277
REMARK  105  A    between atoms: _282  and  _284
REMARK  106  A    between atoms: _284  and  _285
REMARK  107  A    between atoms: _287  and  _289
REMARK  108  A    between atoms: _289  and  _290
REMARK  109  A    between atoms: _293  and  _295
REMARK  110  A    between atoms: _295  and  _296
REMARK  111  A    between atoms: _295  and  _298
REMARK  112  A    between atoms: _301  and  _303
REMARK  113  A    between atoms: _303  and  _304
REMARK  114  A    between atoms: _303  and  _306
REMARK  115  A    between atoms: _306  and  _307
REMARK  116  A    between atoms: _309  and  _311
REMARK  117  A    between atoms: _311  and  _312
REMARK  118  A    between atoms: _311  and  _314
REMARK  119  A    between atoms: _314  and  _315
REMARK  120  A    between atoms: _318  and  _320
REMARK  121  A    between atoms: _320  and  _321
REMARK  122  A    between atoms: _320  and  _323
REMARK  123  A    between atoms: _323  and  _324
REMARK  124  A    between atoms: _327  and  _329
REMARK  125  A    between atoms: _329  and  _330
REMARK  126  A    between atoms: _329  and  _332
REMARK  127  A    between atoms: _332  and  _333
REMARK  128  A    between atoms: _333  and  _334
REMARK  129  A    between atoms: _334  and  _335
REMARK  130  A    between atoms: _335  and  _336
REMARK  131  A    between atoms: _340  and  _342
REMARK  132  A    between atoms: _342  and  _343
REMARK  133  A    between atoms: _342  and  _345
REMARK  134  A    between atoms: _345  and  _346
REMARK  135  A    between atoms: _349  and  _351
REMARK  136  A    between atoms: _351  and  _352
REMARK  137  A    between atoms: _351  and  _354
REMARK  138  A    between atoms: _354  and  _355
REMARK  139  A    between atoms: _361  and  _363
REMARK  140  A    between atoms: _363  and  _364
REMARK  141  A    between atoms: _363  and  _366
REMARK  142  A    between atoms: _369  and  _371
REMARK  143  A    between atoms: _371  and  _372
REMARK  144  A    between atoms: _371  and  _374
REMARK  145  A    between atoms: _374  and  _375
REMARK  146  A    between atoms: _378  and  _380
REMARK  147  A    between atoms: _380  and  _381
REMARK  148  A    between atoms: _380  and  _383
REMARK  149  A    between atoms: _386  and  _388
REMARK  150  A    between atoms: _388  and  _389
REMARK  151  A    between atoms: _388  and  _391
REMARK  152  A    between atoms: _391  and  _392
REMARK  153  A    between atoms: _392  and  _393
REMARK  154  A    between atoms: _393  and  _394
REMARK  155  A    between atoms: _394  and  _395
REMARK  156  A    between atoms: _399  and  _401
REMARK  157  A    between atoms: _401  and  _402
REMARK  158  A    between atoms: _401  and  _404
REMARK  159  A    between atoms: _404  and  _405
REMARK  160  A    between atoms: _408  and  _410
REMARK  161  A    between atoms: _410  and  _411
REMARK  162  A    between atoms: _410  and  _413
REMARK  163  A    between atoms: _413  and  _414
REMARK  164  A    between atoms: _419  and  _420
REMARK  165  A    between atoms: _422  and  _424
REMARK  166  A    between atoms: _424  and  _425
REMARK  167  A    between atoms: _424  and  _427
REMARK  168  A    between atoms: _427  and  _428
REMARK  169  A    between atoms: _433  and  _434
REMARK  170  A    between atoms: _436  and  _438
REMARK  171  A    between atoms: _438  and  _439
REMARK  172  A    between atoms: _441  and  _443
REMARK  173  A    between atoms: _443  and  _444
REMARK  174  A    between atoms: _443  and  _446
REMARK  175  A    between atoms: _449  and  _451
REMARK  176  A    between atoms: _451  and  _452
REMARK  177  A    between atoms: _451  and  _454
REMARK  178  A    between atoms: _454  and  _455
REMARK  179  A    between atoms: _457  and  _459
REMARK  180  A    between atoms: _459  and  _460
REMARK  181  A    between atoms: _459  and  _462
REMARK  182  A    between atoms: _462  and  _463
REMARK  183  A    between atoms: _468  and  _469
REMARK  184  A    between atoms: _471  and  _473
REMARK  185  A    between atoms: _473  and  _474
REMARK  186  A    between atoms: _473  and  _476
REMARK  187  A    between atoms: _476  and  _477
REMARK  188  A    between atoms: _482  and  _483
REMARK  189  A    between atoms: _485  and  _487
REMARK  190  A    between atoms: _487  and  _488
REMARK  191  A    between atoms: _487  and  _490
REMARK  192  A    between atoms: _490  and  _491
REMARK  193  A    between atoms: _494  and  _496
REMARK  194  A    between atoms: _496  and  _497
REMARK  195  A    between atoms: _496  and  _499
REMARK  196  A    between atoms: _503  and  _504
REMARK  197  A    between atoms: _509  and  _511
REMARK  198  A    between atoms: _511  and  _512
REMARK  199  A    between atoms: _511  and  _514
REMARK  200  A    between atoms: _514  and  _515
REMARK  201  A    between atoms: _520  and  _521
REMARK  202  A    between atoms: _523  and  _525
REMARK  203  A    between atoms: _525  and  _526
REMARK  204  A    between atoms: _525  and  _528
REMARK  205  A    between atoms: _528  and  _529
REMARK  206  A    between atoms: _534  and  _535
REMARK  207  A    between atoms: _537  and  _539
REMARK  208  A    between atoms: _539  and  _540
REMARK  209  A    between atoms: _539  and  _542
REMARK  210  A    between atoms: _542  and  _543
REMARK  211  A    between atoms: _545  and  _547
REMARK  212  A    between atoms: _547  and  _548
REMARK  213  A    between atoms: _547  and  _550
REMARK  214  A    between atoms: _550  and  _551
REMARK  215  A    between atoms: _554  and  _556
REMARK  216  A    between atoms: _556  and  _557
REMARK  217  A    between atoms: _556  and  _559
REMARK  218  A    between atoms: _559  and  _560
REMARK  219  A    between atoms: _565  and  _566
REMARK  220  A    between atoms: _568  and  _570
REMARK  221  A    between atoms: _570  and  _571
REMARK  222  A    between atoms: _570  and  _573
REMARK  223  A    between atoms: _573  and  _574
REMARK  224  A    between atoms: _579  and  _580
REMARK  225  A    between atoms: _582  and  _584
REMARK  226  A    between atoms: _584  and  _585
REMARK  227  A    between atoms: _587  and  _589
REMARK  228  A    between atoms: _589  and  _590
REMARK  229  A    between atoms: _589  and  _592
REMARK  230  A    between atoms: _592  and  _593
REMARK  231  A    between atoms: _595  and  _597
REMARK  232  A    between atoms: _597  and  _598
REMARK  233  A    between atoms: _597  and  _600
REMARK  234  A    between atoms: _600  and  _601
REMARK  235  A    between atoms: _606  and  _608
REMARK  236  A    between atoms: _608  and  _609
REMARK  237  A    between atoms: _608  and  _611
REMARK  238  A    between atoms: _611  and  _612
REMARK  239  A    between atoms: _617  and  _618
REMARK                            x       y       z     vdW  Elec       q    Type
REMARK                         _______ _______ _______ _____ _____    ______ ____
ROOT
ATOM      1  O   HOH     1      -2.787 -11.047  -7.887  0.00  0.00    +0.000 OA
ENDROOT
TORSDOF 0
REMARK  Name = ../refined-set-2016/2qbw/2qbw_pocket.pdb
REMARK  239 active torsions:
REMARK  status: ('A' for Active; 'I' for Inactive)
REMARK    1  A    between atoms: _1  and  _5
REMARK    2  A    between atoms: _5  and  _6
REMARK    3  A    between atoms: _5  and  _8
REMARK    4  A    between atoms: _8  and  _9
REMARK    5  A    between atoms: _12  and  _13
REMARK    6  A    between atoms: _18  and  _20
REMARK    7  A    between atoms: _20  and  _21
REMARK    8  A    between atoms: _20  and  _23
REMARK    9  A    between atoms: _23  and  _24
REMARK   10  A    between atoms: _24  and  _25
REMARK   11  A    between atoms: _28  and  _30
REMARK   12  A    between atoms: _30  and  _31
REMARK   13  A    between atoms: _30  and  _33
REMARK   14  A    between atoms: _33  and  _34
REMARK   15  A    between atoms: _37  and  _39
REMARK   16  A    between atoms: _39  and  _40
REMARK   17  A    between atoms: _42  and  _44
REMARK   18  A    between atoms: _44  and  _45
REMARK   19  A    between atoms: _44  and  _47
REMARK   20  A    between atoms: _47  and  _48
REMARK   21  A    between atoms: _54  and  _56
REMARK   22  A    between atoms: _56  and  _57
REMARK   23  A    between atoms: _56  and  _59
REMARK   24  A    between atoms: _59  and  _60
REMARK   25  A    between atoms: _62  and  _64
REMARK   26  A    between atoms: _64  and  _65
REMARK   27  A    between atoms: _64  and  _67
REMARK   28  A    between atoms: _67  and  _68
REMARK   29  A    between atoms: _71  and  _73
REMARK   30  A    between atoms: _73  and  _74
REMARK   31  A    between atoms: _73  and  _76
REMARK   32  A    between atoms: _76  and  _77
REMARK   33  A    between atoms: _79  and  _81
REMARK   34  A    between atoms: _81  and  _82
REMARK   35  A    between atoms: _84  and  _86
REMARK   36  A    between atoms: _86  and  _87
REMARK   37  A    between atoms: _89  and  _91
REMARK   38  A    between atoms: _91  and  _92
REMARK   39  A    between atoms: _94  and  _96
REMARK   40  A    between atoms: _96  and  _97
REMARK   41  A    between atoms: _96  and  _99
REMARK   42  A    between atoms: _99  and  _100
REMARK   43  A    between atoms: _100  and  _101
REMARK   44  A    between atoms: _101  and  _102
REMARK   45  A    between atoms: _111  and  _113
REMARK   46  A    between atoms: _113  and  _114
REMARK   47  A    between atoms: _116  and  _118
REMARK   48  A    between atoms: _118  and  _119
REMARK   49  A    between atoms: _118  and  _121
REMARK   50  A    between atoms: _121  and  _122
REMARK   51  A    between atoms: _128  and  _129
REMARK   52  A    between atoms: _134  and  _136
REMARK   53  A    between atoms: _136  and  _137
REMARK   54  A    between atoms: _136  and  _139
REMARK   55  A    between atoms: _139  and  _140
REMARK   56  A    between atoms: _146  and  _148
REMARK   57  A    between atoms: _148  and  _149
REMARK   58  A    between atoms: _148  and  _151
REMARK   59  A    between atoms: _151  and  _152
REMARK   60  A    between atoms: _155  and  _157
REMARK   61  A    between atoms: _157  and  _158
REMARK   62  A    between atoms: _157  and  _160
REMARK   63  A    between atoms: _160  and  _161
REMARK   64  A    between atoms: _167  and  _169
REMARK   65  A    between atoms: _169  and  _170
REMARK   66  A    between atoms: _169  and  _172
REMARK   67  A    between atoms: _175  and  _177
REMARK   68  A    between atoms: _177  and  _178
REMARK   69  A    between atoms: _177  and  _180
REMARK   70  A    between atoms: _180  and  _181
REMARK   71  A    between atoms: _184  and  _186
REMARK   72  A    between atoms: _186  and  _187
REMARK   73  A    between atoms: _186  and  _189
REMARK   74  A    between atoms: _189  and  _190
REMARK   75  A    between atoms: _190  and  _191
REMARK   76  A    between atoms: _191  and  _192
REMARK   77  A    between atoms: _201  and  _203
REMARK   78  A    between atoms: _203  and  _204
REMARK   79  A    between atoms: _203  and  _206
REMARK   80  A    between atoms: _209  and  _211
REMARK   81  A    between atoms: _211  and  _212
REMARK   82  A    between atoms: _211  and  _214
REMARK   83  A    between atoms: _214  and  _215
REMARK   84  A    between atoms: _215  and  _216
REMARK   85  A    between atoms: _222  and  _223
REMARK   86  A    between atoms: _229  and  _230
REMARK   87  A    between atoms: _235  and  _237
REMARK   88  A    between atoms: _237  and  _238
REMARK   89  A    between atoms: _241  and  _243
REMARK   90  A    between atoms: _243  and  _244
REMARK   91  A    between atoms: _243  and  _246
REMARK   92  A    between atoms: _246  and  _247
REMARK   93  A    between atoms: _250  and  _252
REMARK   94  A    between atoms: _252  and  _253
REMARK   95  A    between atoms: _252  and  _255
REMARK   96  A    between atoms: _255  and  _256
REMARK   97  A    between atoms: _259  and  _261
REMARK   98  A    between atoms: _261  and  _262
REMARK   99  A    between atoms: _261  and  _264
REMARK  100  A    between atoms: _264  and  _265
REMARK  101  A    between atoms: _271  and  _273
REMARK  102  A    between atoms: _273  and  _274
REMARK  103  A    between atoms: _273  and  _276
REMARK  104  A    between atoms: _276  and  _277
REMARK  105  A    between atoms: _282  and  _284
REMARK  106  A    between atoms: _284  and  _285
REMARK  107  A    between atoms: _287  and  _289
REMARK  108  A    between atoms: _289  and  _290
REMARK  109  A    between atoms: _293  and  _295
REMARK  110  A    between atoms: _295  and  _296
REMARK  111  A    between atoms: _295  and  _298
REMARK  112  A    between atoms: _301  and  _303
REMARK  113  A    between atoms: _303  and  _304
REMARK  114  A    between atoms: _303  and  _306
REMARK  115  A    between atoms: _306  and  _307
REMARK  116  A    between atoms: _309  and  _311
REMARK  117  A    between atoms: _311  and  _312
REMARK  118  A    between atoms: _311  and  _314
REMARK  119  A    between atoms: _314  and  _315
REMARK  120  A    between atoms: _318  and  _320
REMARK  121  A    between atoms: _320  and  _321
REMARK  122  A    between atoms: _320  and  _323
REMARK  123  A    between atoms: _323  and  _324
REMARK  124  A    between atoms: _327  and  _329
REMARK  125  A    between atoms: _329  and  _330
REMARK  126  A    between atoms: _329  and  _332
REMARK  127  A    between atoms: _332  and  _333
REMARK  128  A    between atoms: _333  and  _334
REMARK  129  A    between atoms: _334  and  _335
REMARK  130  A    between atoms: _335  and  _336
REMARK  131  A    between atoms: _340  and  _342
REMARK  132  A    between atoms: _342  and  _343
REMARK  133  A    between atoms: _342  and  _345
REMARK  134  A    between atoms: _345  and  _346
REMARK  135  A    between atoms: _349  and  _351
REMARK  136  A    between atoms: _351  and  _352
REMARK  137  A    between atoms: _351  and  _354
REMARK  138  A    between atoms: _354  and  _355
REMARK  139  A    between atoms: _361  and  _363
REMARK  140  A    between atoms: _363  and  _364
REMARK  141  A    between atoms: _363  and  _366
REMARK  142  A    between atoms: _369  and  _371
REMARK  143  A    between atoms: _371  and  _372
REMARK  144  A    between atoms: _371  and  _374
REMARK  145  A    between atoms: _374  and  _375
REMARK  146  A    between atoms: _378  and  _380
REMARK  147  A    between atoms: _380  and  _381
REMARK  148  A    between atoms: _380  and  _383
REMARK  149  A    between atoms: _386  and  _388
REMARK  150  A    between atoms: _388  and  _389
REMARK  151  A    between atoms: _388  and  _391
REMARK  152  A    between atoms: _391  and  _392
REMARK  153  A    between atoms: _392  and  _393
REMARK  154  A    between atoms: _393  and  _394
REMARK  155  A    between atoms: _394  and  _395
REMARK  156  A    between atoms: _399  and  _401
REMARK  157  A    between atoms: _401  and  _402
REMARK  158  A    between atoms: _401  and  _404
REMARK  159  A    between atoms: _404  and  _405
REMARK  160  A    between atoms: _408  and  _410
REMARK  161  A    between atoms: _410  and  _411
REMARK  162  A    between atoms: _410  and  _413
REMARK  163  A    between atoms: _413  and  _414
REMARK  164  A    between atoms: _419  and  _420
REMARK  165  A    between atoms: _422  and  _424
REMARK  166  A    between atoms: _424  and  _425
REMARK  167  A    between atoms: _424  and  _427
REMARK  168  A    between atoms: _427  and  _428
REMARK  169  A    between atoms: _433  and  _434
REMARK  170  A    between atoms: _436  and  _438
REMARK  171  A    between atoms: _438  and  _439
REMARK  172  A    between atoms: _441  and  _443
REMARK  173  A    between atoms: _443  and  _444
REMARK  174  A    between atoms: _443  and  _446
REMARK  175  A    between atoms: _449  and  _451
REMARK  176  A    between atoms: _451  and  _452
REMARK  177  A    between atoms: _451  and  _454
REMARK  178  A    between atoms: _454  and  _455
REMARK  179  A    between atoms: _457  and  _459
REMARK  180  A    between atoms: _459  and  _460
REMARK  181  A    between atoms: _459  and  _462
REMARK  182  A    between atoms: _462  and  _463
REMARK  183  A    between atoms: _468  and  _469
REMARK  184  A    between atoms: _471  and  _473
REMARK  185  A    between atoms: _473  and  _474
REMARK  186  A    between atoms: _473  and  _476
REMARK  187  A    between atoms: _476  and  _477
REMARK  188  A    between atoms: _482  and  _483
REMARK  189  A    between atoms: _485  and  _487
REMARK  190  A    between atoms: _487  and  _488
REMARK  191  A    between atoms: _487  and  _490
REMARK  192  A    between atoms: _490  and  _491
REMARK  193  A    between atoms: _494  and  _496
REMARK  194  A    between atoms: _496  and  _497
REMARK  195  A    between atoms: _496  and  _499
REMARK  196  A    between atoms: _503  and  _504
REMARK  197  A    between atoms: _509  and  _511
REMARK  198  A    between atoms: _511  and  _512
REMARK  199  A    between atoms: _511  and  _514
REMARK  200  A    between atoms: _514  and  _515
REMARK  201  A    between atoms: _520  and  _521
REMARK  202  A    between atoms: _523  and  _525
REMARK  203  A    between atoms: _525  and  _526
REMARK  204  A    between atoms: _525  and  _528
REMARK  205  A    between atoms: _528  and  _529
REMARK  206  A    between atoms: _534  and  _535
REMARK  207  A    between atoms: _537  and  _539
REMARK  208  A    between atoms: _539  and  _540
REMARK  209  A    between atoms: _539  and  _542
REMARK  210  A    between atoms: _542  and  _543
REMARK  211  A    between atoms: _545  and  _547
REMARK  212  A    between atoms: _547  and  _548
REMARK  213  A    between atoms: _547  and  _550
REMARK  214  A    between atoms: _550  and  _551
REMARK  215  A    between atoms: _554  and  _556
REMARK  216  A    between atoms: _556  and  _557
REMARK  217  A    between atoms: _556  and  _559
REMARK  218  A    between atoms: _559  and  _560
REMARK  219  A    between atoms: _565  and  _566
REMARK  220  A    between atoms: _568  and  _570
REMARK  221  A    between atoms: _570  and  _571
REMARK  222  A    between atoms: _570  and  _573
REMARK  223  A    between atoms: _573  and  _574
REMARK  224  A    between atoms: _579  and  _580
REMARK  225  A    between atoms: _582  and  _584
REMARK  226  A    between atoms: _584  and  _585
REMARK  227  A    between atoms: _587  and  _589
REMARK  228  A    between atoms: _589  and  _590
REMARK  229  A    between atoms: _589  and  _592
REMARK  230  A    between atoms: _592  and  _593
REMARK  231  A    between atoms: _595  and  _597
REMARK  232  A    between atoms: _597  and  _598
REMARK  233  A    between atoms: _597  and  _600
REMARK  234  A    between atoms: _600  and  _601
REMARK  235  A    between atoms: _606  and  _608
REMARK  236  A    between atoms: _608  and  _609
REMARK  237  A    between atoms: _608  and  _611
REMARK  238  A    between atoms: _611  and  _612
REMARK  239  A    between atoms: _617  and  _618
REMARK                            x       y       z     vdW  Elec       q    Type
REMARK                         _______ _______ _______ _____ _____    ______ ____
ROOT
ATOM      1  O   HOH     1      -0.970 -12.222 -12.200  0.00  0.00    +0.000 OA
ENDROOT
TORSDOF 0
REMARK  Name = ../refined-set-2016/2qbw/2qbw_pocket.pdb
REMARK  239 active torsions:
REMARK  status: ('A' for Active; 'I' for Inactive)
REMARK    1  A    between atoms: _1  and  _5
REMARK    2  A    between atoms: _5  and  _6
REMARK    3  A    between atoms: _5  and  _8
REMARK    4  A    between atoms: _8  and  _9
REMARK    5  A    between atoms: _12  and  _13
REMARK    6  A    between atoms: _18  and  _20
REMARK    7  A    between atoms: _20  and  _21
REMARK    8  A    between atoms: _20  and  _23
REMARK    9  A    between atoms: _23  and  _24
REMARK   10  A    between atoms: _24  and  _25
REMARK   11  A    between atoms: _28  and  _30
REMARK   12  A    between atoms: _30  and  _31
REMARK   13  A    between atoms: _30  and  _33
REMARK   14  A    between atoms: _33  and  _34
REMARK   15  A    between atoms: _37  and  _39
REMARK   16  A    between atoms: _39  and  _40
REMARK   17  A    between atoms: _42  and  _44
REMARK   18  A    between atoms: _44  and  _45
REMARK   19  A    between atoms: _44  and  _47
REMARK   20  A    between atoms: _47  and  _48
REMARK   21  A    between atoms: _54  and  _56
REMARK   22  A    between atoms: _56  and  _57
REMARK   23  A    between atoms: _56  and  _59
REMARK   24  A    between atoms: _59  and  _60
REMARK   25  A    between atoms: _62  and  _64
REMARK   26  A    between atoms: _64  and  _65
REMARK   27  A    between atoms: _64  and  _67
REMARK   28  A    between atoms: _67  and  _68
REMARK   29  A    between atoms: _71  and  _73
REMARK   30  A    between atoms: _73  and  _74
REMARK   31  A    between atoms: _73  and  _76
REMARK   32  A    between atoms: _76  and  _77
REMARK   33  A    between atoms: _79  and  _81
REMARK   34  A    between atoms: _81  and  _82
REMARK   35  A    between atoms: _84  and  _86
REMARK   36  A    between atoms: _86  and  _87
REMARK   37  A    between atoms: _89  and  _91
REMARK   38  A    between atoms: _91  and  _92
REMARK   39  A    between atoms: _94  and  _96
REMARK   40  A    between atoms: _96  and  _97
REMARK   41  A    between atoms: _96  and  _99
REMARK   42  A    between atoms: _99  and  _100
REMARK   43  A    between atoms: _100  and  _101
REMARK   44  A    between atoms: _101  and  _102
REMARK   45  A    between atoms: _111  and  _113
REMARK   46  A    between atoms: _113  and  _114
REMARK   47  A    between atoms: _116  and  _118
REMARK   48  A    between atoms: _118  and  _119
REMARK   49  A    between atoms: _118  and  _121
REMARK   50  A    between atoms: _121  and  _122
REMARK   51  A    between atoms: _128  and  _129
REMARK   52  A    between atoms: _134  and  _136
REMARK   53  A    between atoms: _136  and  _137
REMARK   54  A    between atoms: _136  and  _139
REMARK   55  A    between atoms: _139  and  _140
REMARK   56  A    between atoms: _146  and  _148
REMARK   57  A    between atoms: _148  and  _149
REMARK   58  A    between atoms: _148  and  _151
REMARK   59  A    between atoms: _151  and  _152
REMARK   60  A    between atoms: _155  and  _157
REMARK   61  A    between atoms: _157  and  _158
REMARK   62  A    between atoms: _157  and  _160
REMARK   63  A    between atoms: _160  and  _161
REMARK   64  A    between atoms: _167  and  _169
REMARK   65  A    between atoms: _169  and  _170
REMARK   66  A    between atoms: _169  and  _172
REMARK   67  A    between atoms: _175  and  _177
REMARK   68  A    between atoms: _177  and  _178
REMARK   69  A    between atoms: _177  and  _180
REMARK   70  A    between atoms: _180  and  _181
REMARK   71  A    between atoms: _184  and  _186
REMARK   72  A    between atoms: _186  and  _187
REMARK   73  A    between atoms: _186  and  _189
REMARK   74  A    between atoms: _189  and  _190
REMARK   75  A    between atoms: _190  and  _191
REMARK   76  A    between atoms: _191  and  _192
REMARK   77  A    between atoms: _201  and  _203
REMARK   78  A    between atoms: _203  and  _204
REMARK   79  A    between atoms: _203  and  _206
REMARK   80  A    between atoms: _209  and  _211
REMARK   81  A    between atoms: _211  and  _212
REMARK   82  A    between atoms: _211  and  _214
REMARK   83  A    between atoms: _214  and  _215
REMARK   84  A    between atoms: _215  and  _216
REMARK   85  A    between atoms: _222  and  _223
REMARK   86  A    between atoms: _229  and  _230
REMARK   87  A    between atoms: _235  and  _237
REMARK   88  A    between atoms: _237  and  _238
REMARK   89  A    between atoms: _241  and  _243
REMARK   90  A    between atoms: _243  and  _244
REMARK   91  A    between atoms: _243  and  _246
REMARK   92  A    between atoms: _246  and  _247
REMARK   93  A    between atoms: _250  and  _252
REMARK   94  A    between atoms: _252  and  _253
REMARK   95  A    between atoms: _252  and  _255
REMARK   96  A    between atoms: _255  and  _256
REMARK   97  A    between atoms: _259  and  _261
REMARK   98  A    between atoms: _261  and  _262
REMARK   99  A    between atoms: _261  and  _264
REMARK  100  A    between atoms: _264  and  _265
REMARK  101  A    between atoms: _271  and  _273
REMARK  102  A    between atoms: _273  and  _274
REMARK  103  A    between atoms: _273  and  _276
REMARK  104  A    between atoms: _276  and  _277
REMARK  105  A    between atoms: _282  and  _284
REMARK  106  A    between atoms: _284  and  _285
REMARK  107  A    between atoms: _287  and  _289
REMARK  108  A    between atoms: _289  and  _290
REMARK  109  A    between atoms: _293  and  _295
REMARK  110  A    between atoms: _295  and  _296
REMARK  111  A    between atoms: _295  and  _298
REMARK  112  A    between atoms: _301  and  _303
REMARK  113  A    between atoms: _303  and  _304
REMARK  114  A    between atoms: _303  and  _306
REMARK  115  A    between atoms: _306  and  _307
REMARK  116  A    between atoms: _309  and  _311
REMARK  117  A    between atoms: _311  and  _312
REMARK  118  A    between atoms: _311  and  _314
REMARK  119  A    between atoms: _314  and  _315
REMARK  120  A    between atoms: _318  and  _320
REMARK  121  A    between atoms: _320  and  _321
REMARK  122  A    between atoms: _320  and  _323
REMARK  123  A    between atoms: _323  and  _324
REMARK  124  A    between atoms: _327  and  _329
REMARK  125  A    between atoms: _329  and  _330
REMARK  126  A    between atoms: _329  and  _332
REMARK  127  A    between atoms: _332  and  _333
REMARK  128  A    between atoms: _333  and  _334
REMARK  129  A    between atoms: _334  and  _335
REMARK  130  A    between atoms: _335  and  _336
REMARK  131  A    between atoms: _340  and  _342
REMARK  132  A    between atoms: _342  and  _343
REMARK  133  A    between atoms: _342  and  _345
REMARK  134  A    between atoms: _345  and  _346
REMARK  135  A    between atoms: _349  and  _351
REMARK  136  A    between atoms: _351  and  _352
REMARK  137  A    between atoms: _351  and  _354
REMARK  138  A    between atoms: _354  and  _355
REMARK  139  A    between atoms: _361  and  _363
REMARK  140  A    between atoms: _363  and  _364
REMARK  141  A    between atoms: _363  and  _366
REMARK  142  A    between atoms: _369  and  _371
REMARK  143  A    between atoms: _371  and  _372
REMARK  144  A    between atoms: _371  and  _374
REMARK  145  A    between atoms: _374  and  _375
REMARK  146  A    between atoms: _378  and  _380
REMARK  147  A    between atoms: _380  and  _381
REMARK  148  A    between atoms: _380  and  _383
REMARK  149  A    between atoms: _386  and  _388
REMARK  150  A    between atoms: _388  and  _389
REMARK  151  A    between atoms: _388  and  _391
REMARK  152  A    between atoms: _391  and  _392
REMARK  153  A    between atoms: _392  and  _393
REMARK  154  A    between atoms: _393  and  _394
REMARK  155  A    between atoms: _394  and  _395
REMARK  156  A    between atoms: _399  and  _401
REMARK  157  A    between atoms: _401  and  _402
REMARK  158  A    between atoms: _401  and  _404
REMARK  159  A    between atoms: _404  and  _405
REMARK  160  A    between atoms: _408  and  _410
REMARK  161  A    between atoms: _410  and  _411
REMARK  162  A    between atoms: _410  and  _413
REMARK  163  A    between atoms: _413  and  _414
REMARK  164  A    between atoms: _419  and  _420
REMARK  165  A    between atoms: _422  and  _424
REMARK  166  A    between atoms: _424  and  _425
REMARK  167  A    between atoms: _424  and  _427
REMARK  168  A    between atoms: _427  and  _428
REMARK  169  A    between atoms: _433  and  _434
REMARK  170  A    between atoms: _436  and  _438
REMARK  171  A    between atoms: _438  and  _439
REMARK  172  A    between atoms: _441  and  _443
REMARK  173  A    between atoms: _443  and  _444
REMARK  174  A    between atoms: _443  and  _446
REMARK  175  A    between atoms: _449  and  _451
REMARK  176  A    between atoms: _451  and  _452
REMARK  177  A    between atoms: _451  and  _454
REMARK  178  A    between atoms: _454  and  _455
REMARK  179  A    between atoms: _457  and  _459
REMARK  180  A    between atoms: _459  and  _460
REMARK  181  A    between atoms: _459  and  _462
REMARK  182  A    between atoms: _462  and  _463
REMARK  183  A    between atoms: _468  and  _469
REMARK  184  A    between atoms: _471  and  _473
REMARK  185  A    between atoms: _473  and  _474
REMARK  186  A    between atoms: _473  and  _476
REMARK  187  A    between atoms: _476  and  _477
REMARK  188  A    between atoms: _482  and  _483
REMARK  189  A    between atoms: _485  and  _487
REMARK  190  A    between atoms: _487  and  _488
REMARK  191  A    between atoms: _487  and  _490
REMARK  192  A    between atoms: _490  and  _491
REMARK  193  A    between atoms: _494  and  _496
REMARK  194  A    between atoms: _496  and  _497
REMARK  195  A    between atoms: _496  and  _499
REMARK  196  A    between atoms: _503  and  _504
REMARK  197  A    between atoms: _509  and  _511
REMARK  198  A    between atoms: _511  and  _512
REMARK  199  A    between atoms: _511  and  _514
REMARK  200  A    between atoms: _514  and  _515
REMARK  201  A    between atoms: _520  and  _521
REMARK  202  A    between atoms: _523  and  _525
REMARK  203  A    between atoms: _525  and  _526
REMARK  204  A    between atoms: _525  and  _528
REMARK  205  A    between atoms: _528  and  _529
REMARK  206  A    between atoms: _534  and  _535
REMARK  207  A    between atoms: _537  and  _539
REMARK  208  A    between atoms: _539  and  _540
REMARK  209  A    between atoms: _539  and  _542
REMARK  210  A    between atoms: _542  and  _543
REMARK  211  A    between atoms: _545  and  _547
REMARK  212  A    between atoms: _547  and  _548
REMARK  213  A    between atoms: _547  and  _550
REMARK  214  A    between atoms: _550  and  _551
REMARK  215  A    between atoms: _554  and  _556
REMARK  216  A    between atoms: _556  and  _557
REMARK  217  A    between atoms: _556  and  _559
REMARK  218  A    between atoms: _559  and  _560
REMARK  219  A    between atoms: _565  and  _566
REMARK  220  A    between atoms: _568  and  _570
REMARK  221  A    between atoms: _570  and  _571
REMARK  222  A    between atoms: _570  and  _573
REMARK  223  A    between atoms: _573  and  _574
REMARK  224  A    between atoms: _579  and  _580
REMARK  225  A    between atoms: _582  and  _584
REMARK  226  A    between atoms: _584  and  _585
REMARK  227  A    between atoms: _587  and  _589
REMARK  228  A    between atoms: _589  and  _590
REMARK  229  A    between atoms: _589  and  _592
REMARK  230  A    between atoms: _592  and  _593
REMARK  231  A    between atoms: _595  and  _597
REMARK  232  A    between atoms: _597  and  _598
REMARK  233  A    between atoms: _597  and  _600
REMARK  234  A    between atoms: _600  and  _601
REMARK  235  A    between atoms: _606  and  _608
REMARK  236  A    between atoms: _608  and  _609
REMARK  237  A    between atoms: _608  and  _611
REMARK  238  A    between atoms: _611  and  _612
REMARK  239  A    between atoms: _617  and  _618
REMARK                            x       y       z     vdW  Elec       q    Type
REMARK                         _______ _______ _______ _____ _____    ______ ____
ROOT
ATOM      1  O   HOH     1      -7.099 -19.122  -2.784  0.00  0.00    +0.000 OA
ENDROOT
TORSDOF 0
REMARK  Name = ../refined-set-2016/2qbw/2qbw_pocket.pdb
REMARK  239 active torsions:
REMARK  status: ('A' for Active; 'I' for Inactive)
REMARK    1  A    between atoms: _1  and  _5
REMARK    2  A    between atoms: _5  and  _6
REMARK    3  A    between atoms: _5  and  _8
REMARK    4  A    between atoms: _8  and  _9
REMARK    5  A    between atoms: _12  and  _13
REMARK    6  A    between atoms: _18  and  _20
REMARK    7  A    between atoms: _20  and  _21
REMARK    8  A    between atoms: _20  and  _23
REMARK    9  A    between atoms: _23  and  _24
REMARK   10  A    between atoms: _24  and  _25
REMARK   11  A    between atoms: _28  and  _30
REMARK   12  A    between atoms: _30  and  _31
REMARK   13  A    between atoms: _30  and  _33
REMARK   14  A    between atoms: _33  and  _34
REMARK   15  A    between atoms: _37  and  _39
REMARK   16  A    between atoms: _39  and  _40
REMARK   17  A    between atoms: _42  and  _44
REMARK   18  A    between atoms: _44  and  _45
REMARK   19  A    between atoms: _44  and  _47
REMARK   20  A    between atoms: _47  and  _48
REMARK   21  A    between atoms: _54  and  _56
REMARK   22  A    between atoms: _56  and  _57
REMARK   23  A    between atoms: _56  and  _59
REMARK   24  A    between atoms: _59  and  _60
REMARK   25  A    between atoms: _62  and  _64
REMARK   26  A    between atoms: _64  and  _65
REMARK   27  A    between atoms: _64  and  _67
REMARK   28  A    between atoms: _67  and  _68
REMARK   29  A    between atoms: _71  and  _73
REMARK   30  A    between atoms: _73  and  _74
REMARK   31  A    between atoms: _73  and  _76
REMARK   32  A    between atoms: _76  and  _77
REMARK   33  A    between atoms: _79  and  _81
REMARK   34  A    between atoms: _81  and  _82
REMARK   35  A    between atoms: _84  and  _86
REMARK   36  A    between atoms: _86  and  _87
REMARK   37  A    between atoms: _89  and  _91
REMARK   38  A    between atoms: _91  and  _92
REMARK   39  A    between atoms: _94  and  _96
REMARK   40  A    between atoms: _96  and  _97
REMARK   41  A    between atoms: _96  and  _99
REMARK   42  A    between atoms: _99  and  _100
REMARK   43  A    between atoms: _100  and  _101
REMARK   44  A    between atoms: _101  and  _102
REMARK   45  A    between atoms: _111  and  _113
REMARK   46  A    between atoms: _113  and  _114
REMARK   47  A    between atoms: _116  and  _118
REMARK   48  A    between atoms: _118  and  _119
REMARK   49  A    between atoms: _118  and  _121
REMARK   50  A    between atoms: _121  and  _122
REMARK   51  A    between atoms: _128  and  _129
REMARK   52  A    between atoms: _134  and  _136
REMARK   53  A    between atoms: _136  and  _137
REMARK   54  A    between atoms: _136  and  _139
REMARK   55  A    between atoms: _139  and  _140
REMARK   56  A    between atoms: _146  and  _148
REMARK   57  A    between atoms: _148  and  _149
REMARK   58  A    between atoms: _148  and  _151
REMARK   59  A    between atoms: _151  and  _152
REMARK   60  A    between atoms: _155  and  _157
REMARK   61  A    between atoms: _157  and  _158
REMARK   62  A    between atoms: _157  and  _160
REMARK   63  A    between atoms: _160  and  _161
REMARK   64  A    between atoms: _167  and  _169
REMARK   65  A    between atoms: _169  and  _170
REMARK   66  A    between atoms: _169  and  _172
REMARK   67  A    between atoms: _175  and  _177
REMARK   68  A    between atoms: _177  and  _178
REMARK   69  A    between atoms: _177  and  _180
REMARK   70  A    between atoms: _180  and  _181
REMARK   71  A    between atoms: _184  and  _186
REMARK   72  A    between atoms: _186  and  _187
REMARK   73  A    between atoms: _186  and  _189
REMARK   74  A    between atoms: _189  and  _190
REMARK   75  A    between atoms: _190  and  _191
REMARK   76  A    between atoms: _191  and  _192
REMARK   77  A    between atoms: _201  and  _203
REMARK   78  A    between atoms: _203  and  _204
REMARK   79  A    between atoms: _203  and  _206
REMARK   80  A    between atoms: _209  and  _211
REMARK   81  A    between atoms: _211  and  _212
REMARK   82  A    between atoms: _211  and  _214
REMARK   83  A    between atoms: _214  and  _215
REMARK   84  A    between atoms: _215  and  _216
REMARK   85  A    between atoms: _222  and  _223
REMARK   86  A    between atoms: _229  and  _230
REMARK   87  A    between atoms: _235  and  _237
REMARK   88  A    between atoms: _237  and  _238
REMARK   89  A    between atoms: _241  and  _243
REMARK   90  A    between atoms: _243  and  _244
REMARK   91  A    between atoms: _243  and  _246
REMARK   92  A    between atoms: _246  and  _247
REMARK   93  A    between atoms: _250  and  _252
REMARK   94  A    between atoms: _252  and  _253
REMARK   95  A    between atoms: _252  and  _255
REMARK   96  A    between atoms: _255  and  _256
REMARK   97  A    between atoms: _259  and  _261
REMARK   98  A    between atoms: _261  and  _262
REMARK   99  A    between atoms: _261  and  _264
REMARK  100  A    between atoms: _264  and  _265
REMARK  101  A    between atoms: _271  and  _273
REMARK  102  A    between atoms: _273  and  _274
REMARK  103  A    between atoms: _273  and  _276
REMARK  104  A    between atoms: _276  and  _277
REMARK  105  A    between atoms: _282  and  _284
REMARK  106  A    between atoms: _284  and  _285
REMARK  107  A    between atoms: _287  and  _289
REMARK  108  A    between atoms: _289  and  _290
REMARK  109  A    between atoms: _293  and  _295
REMARK  110  A    between atoms: _295  and  _296
REMARK  111  A    between atoms: _295  and  _298
REMARK  112  A    between atoms: _301  and  _303
REMARK  113  A    between atoms: _303  and  _304
REMARK  114  A    between atoms: _303  and  _306
REMARK  115  A    between atoms: _306  and  _307
REMARK  116  A    between atoms: _309  and  _311
REMARK  117  A    between atoms: _311  and  _312
REMARK  118  A    between atoms: _311  and  _314
REMARK  119  A    between atoms: _314  and  _315
REMARK  120  A    between atoms: _318  and  _320
REMARK  121  A    between atoms: _320  and  _321
REMARK  122  A    between atoms: _320  and  _323
REMARK  123  A    between atoms: _323  and  _324
REMARK  124  A    between atoms: _327  and  _329
REMARK  125  A    between atoms: _329  and  _330
REMARK  126  A    between atoms: _329  and  _332
REMARK  127  A    between atoms: _332  and  _333
REMARK  128  A    between atoms: _333  and  _334
REMARK  129  A    between atoms: _334  and  _335
REMARK  130  A    between atoms: _335  and  _336
REMARK  131  A    between atoms: _340  and  _342
REMARK  132  A    between atoms: _342  and  _343
REMARK  133  A    between atoms: _342  and  _345
REMARK  134  A    between atoms: _345  and  _346
REMARK  135  A    between atoms: _349  and  _351
REMARK  136  A    between atoms: _351  and  _352
REMARK  137  A    between atoms: _351  and  _354
REMARK  138  A    between atoms: _354  and  _355
REMARK  139  A    between atoms: _361  and  _363
REMARK  140  A    between atoms: _363  and  _364
REMARK  141  A    between atoms: _363  and  _366
REMARK  142  A    between atoms: _369  and  _371
REMARK  143  A    between atoms: _371  and  _372
REMARK  144  A    between atoms: _371  and  _374
REMARK  145  A    between atoms: _374  and  _375
REMARK  146  A    between atoms: _378  and  _380
REMARK  147  A    between atoms: _380  and  _381
REMARK  148  A    between atoms: _380  and  _383
REMARK  149  A    between atoms: _386  and  _388
REMARK  150  A    between atoms: _388  and  _389
REMARK  151  A    between atoms: _388  and  _391
REMARK  152  A    between atoms: _391  and  _392
REMARK  153  A    between atoms: _392  and  _393
REMARK  154  A    between atoms: _393  and  _394
REMARK  155  A    between atoms: _394  and  _395
REMARK  156  A    between atoms: _399  and  _401
REMARK  157  A    between atoms: _401  and  _402
REMARK  158  A    between atoms: _401  and  _404
REMARK  159  A    between atoms: _404  and  _405
REMARK  160  A    between atoms: _408  and  _410
REMARK  161  A    between atoms: _410  and  _411
REMARK  162  A    between atoms: _410  and  _413
REMARK  163  A    between atoms: _413  and  _414
REMARK  164  A    between atoms: _419  and  _420
REMARK  165  A    between atoms: _422  and  _424
REMARK  166  A    between atoms: _424  and  _425
REMARK  167  A    between atoms: _424  and  _427
REMARK  168  A    between atoms: _427  and  _428
REMARK  169  A    between atoms: _433  and  _434
REMARK  170  A    between atoms: _436  and  _438
REMARK  171  A    between atoms: _438  and  _439
REMARK  172  A    between atoms: _441  and  _443
REMARK  173  A    between atoms: _443  and  _444
REMARK  174  A    between atoms: _443  and  _446
REMARK  175  A    between atoms: _449  and  _451
REMARK  176  A    between atoms: _451  and  _452
REMARK  177  A    between atoms: _451  and  _454
REMARK  178  A    between atoms: _454  and  _455
REMARK  179  A    between atoms: _457  and  _459
REMARK  180  A    between atoms: _459  and  _460
REMARK  181  A    between atoms: _459  and  _462
REMARK  182  A    between atoms: _462  and  _463
REMARK  183  A    between atoms: _468  and  _469
REMARK  184  A    between atoms: _471  and  _473
REMARK  185  A    between atoms: _473  and  _474
REMARK  186  A    between atoms: _473  and  _476
REMARK  187  A    between atoms: _476  and  _477
REMARK  188  A    between atoms: _482  and  _483
REMARK  189  A    between atoms: _485  and  _487
REMARK  190  A    between atoms: _487  and  _488
REMARK  191  A    between atoms: _487  and  _490
REMARK  192  A    between atoms: _490  and  _491
REMARK  193  A    between atoms: _494  and  _496
REMARK  194  A    between atoms: _496  and  _497
REMARK  195  A    between atoms: _496  and  _499
REMARK  196  A    between atoms: _503  and  _504
REMARK  197  A    between atoms: _509  and  _511
REMARK  198  A    between atoms: _511  and  _512
REMARK  199  A    between atoms: _511  and  _514
REMARK  200  A    between atoms: _514  and  _515
REMARK  201  A    between atoms: _520  and  _521
REMARK  202  A    between atoms: _523  and  _525
REMARK  203  A    between atoms: _525  and  _526
REMARK  204  A    between atoms: _525  and  _528
REMARK  205  A    between atoms: _528  and  _529
REMARK  206  A    between atoms: _534  and  _535
REMARK  207  A    between atoms: _537  and  _539
REMARK  208  A    between atoms: _539  and  _540
REMARK  209  A    between atoms: _539  and  _542
REMARK  210  A    between atoms: _542  and  _543
REMARK  211  A    between atoms: _545  and  _547
REMARK  212  A    between atoms: _547  and  _548
REMARK  213  A    between atoms: _547  and  _550
REMARK  214  A    between atoms: _550  and  _551
REMARK  215  A    between atoms: _554  and  _556
REMARK  216  A    between atoms: _556  and  _557
REMARK  217  A    between atoms: _556  and  _559
REMARK  218  A    between atoms: _559  and  _560
REMARK  219  A    between atoms: _565  and  _566
REMARK  220  A    between atoms: _568  and  _570
REMARK  221  A    between atoms: _570  and  _571
REMARK  222  A    between atoms: _570  and  _573
REMARK  223  A    between atoms: _573  and  _574
REMARK  224  A    between atoms: _579  and  _580
REMARK  225  A    between atoms: _582  and  _584
REMARK  226  A    between atoms: _584  and  _585
REMARK  227  A    between atoms: _587  and  _589
REMARK  228  A    between atoms: _589  and  _590
REMARK  229  A    between atoms: _589  and  _592
REMARK  230  A    between atoms: _592  and  _593
REMARK  231  A    between atoms: _595  and  _597
REMARK  232  A    between atoms: _597  and  _598
REMARK  233  A    between atoms: _597  and  _600
REMARK  234  A    between atoms: _600  and  _601
REMARK  235  A    between atoms: _606  and  _608
REMARK  236  A    between atoms: _608  and  _609
REMARK  237  A    between atoms: _608  and  _611
REMARK  238  A    between atoms: _611  and  _612
REMARK  239  A    between atoms: _617  and  _618
REMARK                            x       y       z     vdW  Elec       q    Type
REMARK                         _______ _______ _______ _____ _____    ______ ____
ROOT
ATOM      1  O   HOH     1      -7.085 -15.020  -4.001  0.00  0.00    +0.000 OA
ENDROOT
TORSDOF 0
REMARK  Name = ../refined-set-2016/2qbw/2qbw_pocket.pdb
REMARK  239 active torsions:
REMARK  status: ('A' for Active; 'I' for Inactive)
REMARK    1  A    between atoms: _1  and  _5
REMARK    2  A    between atoms: _5  and  _6
REMARK    3  A    between atoms: _5  and  _8
REMARK    4  A    between atoms: _8  and  _9
REMARK    5  A    between atoms: _12  and  _13
REMARK    6  A    between atoms: _18  and  _20
REMARK    7  A    between atoms: _20  and  _21
REMARK    8  A    between atoms: _20  and  _23
REMARK    9  A    between atoms: _23  and  _24
REMARK   10  A    between atoms: _24  and  _25
REMARK   11  A    between atoms: _28  and  _30
REMARK   12  A    between atoms: _30  and  _31
REMARK   13  A    between atoms: _30  and  _33
REMARK   14  A    between atoms: _33  and  _34
REMARK   15  A    between atoms: _37  and  _39
REMARK   16  A    between atoms: _39  and  _40
REMARK   17  A    between atoms: _42  and  _44
REMARK   18  A    between atoms: _44  and  _45
REMARK   19  A    between atoms: _44  and  _47
REMARK   20  A    between atoms: _47  and  _48
REMARK   21  A    between atoms: _54  and  _56
REMARK   22  A    between atoms: _56  and  _57
REMARK   23  A    between atoms: _56  and  _59
REMARK   24  A    between atoms: _59  and  _60
REMARK   25  A    between atoms: _62  and  _64
REMARK   26  A    between atoms: _64  and  _65
REMARK   27  A    between atoms: _64  and  _67
REMARK   28  A    between atoms: _67  and  _68
REMARK   29  A    between atoms: _71  and  _73
REMARK   30  A    between atoms: _73  and  _74
REMARK   31  A    between atoms: _73  and  _76
REMARK   32  A    between atoms: _76  and  _77
REMARK   33  A    between atoms: _79  and  _81
REMARK   34  A    between atoms: _81  and  _82
REMARK   35  A    between atoms: _84  and  _86
REMARK   36  A    between atoms: _86  and  _87
REMARK   37  A    between atoms: _89  and  _91
REMARK   38  A    between atoms: _91  and  _92
REMARK   39  A    between atoms: _94  and  _96
REMARK   40  A    between atoms: _96  and  _97
REMARK   41  A    between atoms: _96  and  _99
REMARK   42  A    between atoms: _99  and  _100
REMARK   43  A    between atoms: _100  and  _101
REMARK   44  A    between atoms: _101  and  _102
REMARK   45  A    between atoms: _111  and  _113
REMARK   46  A    between atoms: _113  and  _114
REMARK   47  A    between atoms: _116  and  _118
REMARK   48  A    between atoms: _118  and  _119
REMARK   49  A    between atoms: _118  and  _121
REMARK   50  A    between atoms: _121  and  _122
REMARK   51  A    between atoms: _128  and  _129
REMARK   52  A    between atoms: _134  and  _136
REMARK   53  A    between atoms: _136  and  _137
REMARK   54  A    between atoms: _136  and  _139
REMARK   55  A    between atoms: _139  and  _140
REMARK   56  A    between atoms: _146  and  _148
REMARK   57  A    between atoms: _148  and  _149
REMARK   58  A    between atoms: _148  and  _151
REMARK   59  A    between atoms: _151  and  _152
REMARK   60  A    between atoms: _155  and  _157
REMARK   61  A    between atoms: _157  and  _158
REMARK   62  A    between atoms: _157  and  _160
REMARK   63  A    between atoms: _160  and  _161
REMARK   64  A    between atoms: _167  and  _169
REMARK   65  A    between atoms: _169  and  _170
REMARK   66  A    between atoms: _169  and  _172
REMARK   67  A    between atoms: _175  and  _177
REMARK   68  A    between atoms: _177  and  _178
REMARK   69  A    between atoms: _177  and  _180
REMARK   70  A    between atoms: _180  and  _181
REMARK   71  A    between atoms: _184  and  _186
REMARK   72  A    between atoms: _186  and  _187
REMARK   73  A    between atoms: _186  and  _189
REMARK   74  A    between atoms: _189  and  _190
REMARK   75  A    between atoms: _190  and  _191
REMARK   76  A    between atoms: _191  and  _192
REMARK   77  A    between atoms: _201  and  _203
REMARK   78  A    between atoms: _203  and  _204
REMARK   79  A    between atoms: _203  and  _206
REMARK   80  A    between atoms: _209  and  _211
REMARK   81  A    between atoms: _211  and  _212
REMARK   82  A    between atoms: _211  and  _214
REMARK   83  A    between atoms: _214  and  _215
REMARK   84  A    between atoms: _215  and  _216
REMARK   85  A    between atoms: _222  and  _223
REMARK   86  A    between atoms: _229  and  _230
REMARK   87  A    between atoms: _235  and  _237
REMARK   88  A    between atoms: _237  and  _238
REMARK   89  A    between atoms: _241  and  _243
REMARK   90  A    between atoms: _243  and  _244
REMARK   91  A    between atoms: _243  and  _246
REMARK   92  A    between atoms: _246  and  _247
REMARK   93  A    between atoms: _250  and  _252
REMARK   94  A    between atoms: _252  and  _253
REMARK   95  A    between atoms: _252  and  _255
REMARK   96  A    between atoms: _255  and  _256
REMARK   97  A    between atoms: _259  and  _261
REMARK   98  A    between atoms: _261  and  _262
REMARK   99  A    between atoms: _261  and  _264
REMARK  100  A    between atoms: _264  and  _265
REMARK  101  A    between atoms: _271  and  _273
REMARK  102  A    between atoms: _273  and  _274
REMARK  103  A    between atoms: _273  and  _276
REMARK  104  A    between atoms: _276  and  _277
REMARK  105  A    between atoms: _282  and  _284
REMARK  106  A    between atoms: _284  and  _285
REMARK  107  A    between atoms: _287  and  _289
REMARK  108  A    between atoms: _289  and  _290
REMARK  109  A    between atoms: _293  and  _295
REMARK  110  A    between atoms: _295  and  _296
REMARK  111  A    between atoms: _295  and  _298
REMARK  112  A    between atoms: _301  and  _303
REMARK  113  A    between atoms: _303  and  _304
REMARK  114  A    between atoms: _303  and  _306
REMARK  115  A    between atoms: _306  and  _307
REMARK  116  A    between atoms: _309  and  _311
REMARK  117  A    between atoms: _311  and  _312
REMARK  118  A    between atoms: _311  and  _314
REMARK  119  A    between atoms: _314  and  _315
REMARK  120  A    between atoms: _318  and  _320
REMARK  121  A    between atoms: _320  and  _321
REMARK  122  A    between atoms: _320  and  _323
REMARK  123  A    between atoms: _323  and  _324
REMARK  124  A    between atoms: _327  and  _329
REMARK  125  A    between atoms: _329  and  _330
REMARK  126  A    between atoms: _329  and  _332
REMARK  127  A    between atoms: _332  and  _333
REMARK  128  A    between atoms: _333  and  _334
REMARK  129  A    between atoms: _334  and  _335
REMARK  130  A    between atoms: _335  and  _336
REMARK  131  A    between atoms: _340  and  _342
REMARK  132  A    between atoms: _342  and  _343
REMARK  133  A    between atoms: _342  and  _345
REMARK  134  A    between atoms: _345  and  _346
REMARK  135  A    between atoms: _349  and  _351
REMARK  136  A    between atoms: _351  and  _352
REMARK  137  A    between atoms: _351  and  _354
REMARK  138  A    between atoms: _354  and  _355
REMARK  139  A    between atoms: _361  and  _363
REMARK  140  A    between atoms: _363  and  _364
REMARK  141  A    between atoms: _363  and  _366
REMARK  142  A    between atoms: _369  and  _371
REMARK  143  A    between atoms: _371  and  _372
REMARK  144  A    between atoms: _371  and  _374
REMARK  145  A    between atoms: _374  and  _375
REMARK  146  A    between atoms: _378  and  _380
REMARK  147  A    between atoms: _380  and  _381
REMARK  148  A    between atoms: _380  and  _383
REMARK  149  A    between atoms: _386  and  _388
REMARK  150  A    between atoms: _388  and  _389
REMARK  151  A    between atoms: _388  and  _391
REMARK  152  A    between atoms: _391  and  _392
REMARK  153  A    between atoms: _392  and  _393
REMARK  154  A    between atoms: _393  and  _394
REMARK  155  A    between atoms: _394  and  _395
REMARK  156  A    between atoms: _399  and  _401
REMARK  157  A    between atoms: _401  and  _402
REMARK  158  A    between atoms: _401  and  _404
REMARK  159  A    between atoms: _404  and  _405
REMARK  160  A    between atoms: _408  and  _410
REMARK  161  A    between atoms: _410  and  _411
REMARK  162  A    between atoms: _410  and  _413
REMARK  163  A    between atoms: _413  and  _414
REMARK  164  A    between atoms: _419  and  _420
REMARK  165  A    between atoms: _422  and  _424
REMARK  166  A    between atoms: _424  and  _425
REMARK  167  A    between atoms: _424  and  _427
REMARK  168  A    between atoms: _427  and  _428
REMARK  169  A    between atoms: _433  and  _434
REMARK  170  A    between atoms: _436  and  _438
REMARK  171  A    between atoms: _438  and  _439
REMARK  172  A    between atoms: _441  and  _443
REMARK  173  A    between atoms: _443  and  _444
REMARK  174  A    between atoms: _443  and  _446
REMARK  175  A    between atoms: _449  and  _451
REMARK  176  A    between atoms: _451  and  _452
REMARK  177  A    between atoms: _451  and  _454
REMARK  178  A    between atoms: _454  and  _455
REMARK  179  A    between atoms: _457  and  _459
REMARK  180  A    between atoms: _459  and  _460
REMARK  181  A    between atoms: _459  and  _462
REMARK  182  A    between atoms: _462  and  _463
REMARK  183  A    between atoms: _468  and  _469
REMARK  184  A    between atoms: _471  and  _473
REMARK  185  A    between atoms: _473  and  _474
REMARK  186  A    between atoms: _473  and  _476
REMARK  187  A    between atoms: _476  and  _477
REMARK  188  A    between atoms: _482  and  _483
REMARK  189  A    between atoms: _485  and  _487
REMARK  190  A    between atoms: _487  and  _488
REMARK  191  A    between atoms: _487  and  _490
REMARK  192  A    between atoms: _490  and  _491
REMARK  193  A    between atoms: _494  and  _496
REMARK  194  A    between atoms: _496  and  _497
REMARK  195  A    between atoms: _496  and  _499
REMARK  196  A    between atoms: _503  and  _504
REMARK  197  A    between atoms: _509  and  _511
REMARK  198  A    between atoms: _511  and  _512
REMARK  199  A    between atoms: _511  and  _514
REMARK  200  A    between atoms: _514  and  _515
REMARK  201  A    between atoms: _520  and  _521
REMARK  202  A    between atoms: _523  and  _525
REMARK  203  A    between atoms: _525  and  _526
REMARK  204  A    between atoms: _525  and  _528
REMARK  205  A    between atoms: _528  and  _529
REMARK  206  A    between atoms: _534  and  _535
REMARK  207  A    between atoms: _537  and  _539
REMARK  208  A    between atoms: _539  and  _540
REMARK  209  A    between atoms: _539  and  _542
REMARK  210  A    between atoms: _542  and  _543
REMARK  211  A    between atoms: _545  and  _547
REMARK  212  A    between atoms: _547  and  _548
REMARK  213  A    between atoms: _547  and  _550
REMARK  214  A    between atoms: _550  and  _551
REMARK  215  A    between atoms: _554  and  _556
REMARK  216  A    between atoms: _556  and  _557
REMARK  217  A    between atoms: _556  and  _559
REMARK  218  A    between atoms: _559  and  _560
REMARK  219  A    between atoms: _565  and  _566
REMARK  220  A    between atoms: _568  and  _570
REMARK  221  A    between atoms: _570  and  _571
REMARK  222  A    between atoms: _570  and  _573
REMARK  223  A    between atoms: _573  and  _574
REMARK  224  A    between atoms: _579  and  _580
REMARK  225  A    between atoms: _582  and  _584
REMARK  226  A    between atoms: _584  and  _585
REMARK  227  A    between atoms: _587  and  _589
REMARK  228  A    between atoms: _589  and  _590
REMARK  229  A    between atoms: _589  and  _592
REMARK  230  A    between atoms: _592  and  _593
REMARK  231  A    between atoms: _595  and  _597
REMARK  232  A    between atoms: _597  and  _598
REMARK  233  A    between atoms: _597  and  _600
REMARK  234  A    between atoms: _600  and  _601
REMARK  235  A    between atoms: _606  and  _608
REMARK  236  A    between atoms: _608  and  _609
REMARK  237  A    between atoms: _608  and  _611
REMARK  238  A    between atoms: _611  and  _612
REMARK  239  A    between atoms: _617  and  _618
REMARK                            x       y       z     vdW  Elec       q    Type
REMARK                         _______ _______ _______ _____ _____    ______ ____
ROOT
ATOM      1  O   HOH     1      -2.491 -15.208  -8.954  0.00  0.00    +0.000 OA
ENDROOT
TORSDOF 0
