REMARK  Name = ../refined-set-2016/1hvj/1hvj_pocket.pdb
REMARK  229 active torsions:
REMARK  status: ('A' for Active; 'I' for Inactive)
REMARK    1  A    between atoms: _1  and  _3
REMARK    2  A    between atoms: _3  and  _4
REMARK    3  A    between atoms: _3  and  _6
REMARK    4  A    between atoms: _6  and  _7
REMARK    5  A    between atoms: _7  and  _8
REMARK    6  A    between atoms: _8  and  _9
REMARK    7  A    between atoms: _19  and  _20
REMARK    8  A    between atoms: _25  and  _27
REMARK    9  A    between atoms: _27  and  _28
REMARK   10  A    between atoms: _27  and  _30
REMARK   11  A    between atoms: _30  and  _31
REMARK   12  A    between atoms: _34  and  _36
REMARK   13  A    between atoms: _36  and  _37
REMARK   14  A    between atoms: _36  and  _39
REMARK   15  A    between atoms: _39  and  _40
REMARK   16  A    between atoms: _43  and  _45
REMARK   17  A    between atoms: _45  and  _46
REMARK   18  A    between atoms: _45  and  _48
REMARK   19  A    between atoms: _48  and  _49
REMARK   20  A    between atoms: _52  and  _54
REMARK   21  A    between atoms: _54  and  _55
REMARK   22  A    between atoms: _54  and  _57
REMARK   23  A    between atoms: _57  and  _58
REMARK   24  A    between atoms: _61  and  _63
REMARK   25  A    between atoms: _63  and  _64
REMARK   26  A    between atoms: _63  and  _66
REMARK   27  A    between atoms: _66  and  _67
REMARK   28  A    between atoms: _70  and  _72
REMARK   29  A    between atoms: _72  and  _73
REMARK   30  A    between atoms: _75  and  _77
REMARK   31  A    between atoms: _77  and  _78
REMARK   32  A    between atoms: _81  and  _83
REMARK   33  A    between atoms: _83  and  _84
REMARK   34  A    between atoms: _83  and  _86
REMARK   35  A    between atoms: _86  and  _87
REMARK   36  A    between atoms: _90  and  _92
REMARK   37  A    between atoms: _92  and  _93
REMARK   38  A    between atoms: _92  and  _95
REMARK   39  A    between atoms: _95  and  _96
REMARK   40  A    between atoms: _99  and  _101
REMARK   41  A    between atoms: _101  and  _102
REMARK   42  A    between atoms: _101  and  _104
REMARK   43  A    between atoms: _104  and  _105
REMARK   44  A    between atoms: _108  and  _110
REMARK   45  A    between atoms: _110  and  _111
REMARK   46  A    between atoms: _110  and  _113
REMARK   47  A    between atoms: _116  and  _118
REMARK   48  A    between atoms: _118  and  _119
REMARK   49  A    between atoms: _118  and  _121
REMARK   50  A    between atoms: _121  and  _122
REMARK   51  A    between atoms: _122  and  _123
REMARK   52  A    between atoms: _123  and  _124
REMARK   53  A    between atoms: _124  and  _125
REMARK   54  A    between atoms: _129  and  _131
REMARK   55  A    between atoms: _131  and  _132
REMARK   56  A    between atoms: _131  and  _134
REMARK   57  A    between atoms: _134  and  _135
REMARK   58  A    between atoms: _135  and  _136
REMARK   59  A    between atoms: _138  and  _140
REMARK   60  A    between atoms: _140  and  _141
REMARK   61  A    between atoms: _140  and  _143
REMARK   62  A    between atoms: _143  and  _144
REMARK   63  A    between atoms: _147  and  _149
REMARK   64  A    between atoms: _149  and  _150
REMARK   65  A    between atoms: _152  and  _154
REMARK   66  A    between atoms: _154  and  _155
REMARK   67  A    between atoms: _157  and  _159
REMARK   68  A    between atoms: _159  and  _160
REMARK   69  A    between atoms: _159  and  _162
REMARK   70  A    between atoms: _162  and  _163
REMARK   71  A    between atoms: _166  and  _168
REMARK   72  A    between atoms: _168  and  _169
REMARK   73  A    between atoms: _171  and  _173
REMARK   74  A    between atoms: _173  and  _174
REMARK   75  A    between atoms: _176  and  _178
REMARK   76  A    between atoms: _178  and  _179
REMARK   77  A    between atoms: _178  and  _181
REMARK   78  A    between atoms: _181  and  _182
REMARK   79  A    between atoms: _188  and  _190
REMARK   80  A    between atoms: _190  and  _191
REMARK   81  A    between atoms: _190  and  _193
REMARK   82  A    between atoms: _193  and  _194
REMARK   83  A    between atoms: _197  and  _199
REMARK   84  A    between atoms: _199  and  _200
REMARK   85  A    between atoms: _199  and  _202
REMARK   86  A    between atoms: _202  and  _203
REMARK   87  A    between atoms: _207  and  _208
REMARK   88  A    between atoms: _213  and  _215
REMARK   89  A    between atoms: _215  and  _216
REMARK   90  A    between atoms: _215  and  _218
REMARK   91  A    between atoms: _218  and  _219
REMARK   92  A    between atoms: _223  and  _224
REMARK   93  A    between atoms: _229  and  _231
REMARK   94  A    between atoms: _231  and  _232
REMARK   95  A    between atoms: _231  and  _234
REMARK   96  A    between atoms: _237  and  _239
REMARK   97  A    between atoms: _239  and  _240
REMARK   98  A    between atoms: _239  and  _242
REMARK   99  A    between atoms: _242  and  _243
REMARK  100  A    between atoms: _248  and  _250
REMARK  101  A    between atoms: _250  and  _251
REMARK  102  A    between atoms: _250  and  _253
REMARK  103  A    between atoms: _253  and  _254
REMARK  104  A    between atoms: _257  and  _259
REMARK  105  A    between atoms: _259  and  _260
REMARK  106  A    between atoms: _259  and  _262
REMARK  107  A    between atoms: _262  and  _263
REMARK  108  A    between atoms: _266  and  _268
REMARK  109  A    between atoms: _268  and  _269
REMARK  110  A    between atoms: _271  and  _273
REMARK  111  A    between atoms: _273  and  _274
REMARK  112  A    between atoms: _273  and  _276
REMARK  113  A    between atoms: _276  and  _277
REMARK  114  A    between atoms: _277  and  _278
REMARK  115  A    between atoms: _278  and  _279
REMARK  116  A    between atoms: _288  and  _290
REMARK  117  A    between atoms: _290  and  _291
REMARK  118  A    between atoms: _290  and  _293
REMARK  119  A    between atoms: _293  and  _294
REMARK  120  A    between atoms: _294  and  _295
REMARK  121  A    between atoms: _295  and  _296
REMARK  122  A    between atoms: _305  and  _307
REMARK  123  A    between atoms: _307  and  _308
REMARK  124  A    between atoms: _307  and  _310
REMARK  125  A    between atoms: _310  and  _311
REMARK  126  A    between atoms: _314  and  _316
REMARK  127  A    between atoms: _316  and  _317
REMARK  128  A    between atoms: _316  and  _319
REMARK  129  A    between atoms: _319  and  _320
REMARK  130  A    between atoms: _323  and  _325
REMARK  131  A    between atoms: _325  and  _326
REMARK  132  A    between atoms: _325  and  _328
REMARK  133  A    between atoms: _328  and  _329
REMARK  134  A    between atoms: _332  and  _334
REMARK  135  A    between atoms: _334  and  _335
REMARK  136  A    between atoms: _334  and  _337
REMARK  137  A    between atoms: _337  and  _338
REMARK  138  A    between atoms: _341  and  _343
REMARK  139  A    between atoms: _343  and  _344
REMARK  140  A    between atoms: _343  and  _346
REMARK  141  A    between atoms: _346  and  _347
REMARK  142  A    between atoms: _350  and  _352
REMARK  143  A    between atoms: _352  and  _353
REMARK  144  A    between atoms: _355  and  _357
REMARK  145  A    between atoms: _357  and  _358
REMARK  146  A    between atoms: _361  and  _363
REMARK  147  A    between atoms: _363  and  _364
REMARK  148  A    between atoms: _363  and  _366
REMARK  149  A    between atoms: _366  and  _367
REMARK  150  A    between atoms: _370  and  _372
REMARK  151  A    between atoms: _372  and  _373
REMARK  152  A    between atoms: _372  and  _375
REMARK  153  A    between atoms: _375  and  _376
REMARK  154  A    between atoms: _379  and  _381
REMARK  155  A    between atoms: _381  and  _382
REMARK  156  A    between atoms: _381  and  _384
REMARK  157  A    between atoms: _384  and  _385
REMARK  158  A    between atoms: _388  and  _390
REMARK  159  A    between atoms: _390  and  _391
REMARK  160  A    between atoms: _390  and  _393
REMARK  161  A    between atoms: _396  and  _398
REMARK  162  A    between atoms: _398  and  _399
REMARK  163  A    between atoms: _398  and  _401
REMARK  164  A    between atoms: _401  and  _402
REMARK  165  A    between atoms: _402  and  _403
REMARK  166  A    between atoms: _403  and  _404
REMARK  167  A    between atoms: _404  and  _405
REMARK  168  A    between atoms: _409  and  _411
REMARK  169  A    between atoms: _411  and  _412
REMARK  170  A    between atoms: _411  and  _414
REMARK  171  A    between atoms: _414  and  _415
REMARK  172  A    between atoms: _415  and  _416
REMARK  173  A    between atoms: _418  and  _420
REMARK  174  A    between atoms: _420  and  _421
REMARK  175  A    between atoms: _420  and  _423
REMARK  176  A    between atoms: _423  and  _424
REMARK  177  A    between atoms: _427  and  _429
REMARK  178  A    between atoms: _429  and  _430
REMARK  179  A    between atoms: _432  and  _434
REMARK  180  A    between atoms: _434  and  _435
REMARK  181  A    between atoms: _437  and  _439
REMARK  182  A    between atoms: _439  and  _440
REMARK  183  A    between atoms: _439  and  _442
REMARK  184  A    between atoms: _442  and  _443
REMARK  185  A    between atoms: _446  and  _448
REMARK  186  A    between atoms: _448  and  _449
REMARK  187  A    between atoms: _451  and  _453
REMARK  188  A    between atoms: _453  and  _454
REMARK  189  A    between atoms: _456  and  _458
REMARK  190  A    between atoms: _458  and  _459
REMARK  191  A    between atoms: _458  and  _461
REMARK  192  A    between atoms: _461  and  _462
REMARK  193  A    between atoms: _468  and  _470
REMARK  194  A    between atoms: _470  and  _471
REMARK  195  A    between atoms: _470  and  _473
REMARK  196  A    between atoms: _473  and  _474
REMARK  197  A    between atoms: _477  and  _479
REMARK  198  A    between atoms: _479  and  _480
REMARK  199  A    between atoms: _479  and  _482
REMARK  200  A    between atoms: _482  and  _483
REMARK  201  A    between atoms: _487  and  _488
REMARK  202  A    between atoms: _493  and  _495
REMARK  203  A    between atoms: _495  and  _496
REMARK  204  A    between atoms: _495  and  _498
REMARK  205  A    between atoms: _498  and  _499
REMARK  206  A    between atoms: _503  and  _504
REMARK  207  A    between atoms: _509  and  _511
REMARK  208  A    between atoms: _511  and  _512
REMARK  209  A    between atoms: _511  and  _514
REMARK  210  A    between atoms: _517  and  _519
REMARK  211  A    between atoms: _519  and  _520
REMARK  212  A    between atoms: _519  and  _522
REMARK  213  A    between atoms: _522  and  _523
REMARK  214  A    between atoms: _528  and  _530
REMARK  215  A    between atoms: _530  and  _531
REMARK  216  A    between atoms: _530  and  _533
REMARK  217  A    between atoms: _533  and  _534
REMARK  218  A    between atoms: _537  and  _539
REMARK  219  A    between atoms: _539  and  _540
REMARK  220  A    between atoms: _539  and  _542
REMARK  221  A    between atoms: _542  and  _543
REMARK  222  A    between atoms: _546  and  _548
REMARK  223  A    between atoms: _548  and  _549
REMARK  224  A    between atoms: _551  and  _553
REMARK  225  A    between atoms: _553  and  _554
REMARK  226  A    between atoms: _553  and  _556
REMARK  227  A    between atoms: _556  and  _557
REMARK  228  A    between atoms: _557  and  _558
REMARK  229  A    between atoms: _558  and  _559
REMARK                            x       y       z     vdW  Elec       q    Type
REMARK                         _______ _______ _______ _____ _____    ______ ____
ROOT
ATOM      1  C   ARG A   1       2.163  -3.524  27.624  0.00  0.00    +0.241 C 
ATOM      2  O   ARG A   1       1.340  -3.955  28.424  0.00  0.00    -0.273 OA
ATOM      3  N   PRO A   2       2.133  -2.269  27.131  0.00  0.00    -0.272 N 
ATOM      4  CA  PRO A   2       1.048  -1.345  27.535  0.00  0.00    +0.152 C 
ATOM      5  CB  PRO A   2       1.692   0.016  27.222  0.00  0.00    +0.031 C 
ATOM      6  CG  PRO A   2       2.533  -0.245  25.970  0.00  0.00    +0.024 C 
ATOM      7  CD  PRO A   2       3.114  -1.630  26.250  0.00  0.00    +0.094 C 
ENDROOT
BRANCH   4   8
ATOM      8  C   PRO A   2      -0.275  -1.600  26.780  0.00  0.00    +0.241 C 
ATOM      9  N   LEU A   3      -0.859  -2.706  27.215  0.00  0.00    -0.298 N 
ATOM     10  H   LEU A   3      -0.359  -3.309  27.899  0.00  0.00    +0.150 HD
ATOM     11  O   PRO A   2      -0.741  -0.909  25.879  0.00  0.00    -0.273 OA
BRANCH   9  12
ATOM     12  CA  LEU A   3      -2.188  -3.097  26.756  0.00  0.00    +0.137 C 
BRANCH  12  13
ATOM     13  C   LEU A   3      -3.256  -2.565  27.655  0.00  0.00    +0.227 C 
ATOM     14  O   LEU A   3      -3.217  -2.739  28.860  0.00  0.00    -0.286 OA
ENDBRANCH  12  13
BRANCH  12  15
ATOM     15  CB  LEU A   3      -2.388  -4.610  26.781  0.00  0.00    +0.028 C 
BRANCH  15  16
ATOM     16  CG  LEU A   3      -1.460  -5.411  25.871  0.00  0.00    +0.002 C 
ATOM     17  CD2 LEU A   3      -1.534  -6.884  26.289  0.00  0.00    +0.000 C 
ATOM     18  CD1 LEU A   3      -1.753  -5.207  24.383  0.00  0.00    +0.000 C 
ENDBRANCH  15  16
ENDBRANCH  12  15
ENDBRANCH   9  12
ENDBRANCH   4   8
BRANCH   1  19
ATOM     19  CA  ARG A   1       3.305  -4.439  27.137  0.00  0.00    +0.145 C 
BRANCH  19  20
ATOM     20  N   ARG A   1       4.003  -5.234  28.172  0.00  0.00    -0.238 NA
ATOM     21  H   ARG A   1       4.047  -6.272  28.119  0.00  0.00    +0.142 HD
ENDBRANCH  19  20
BRANCH  19  22
ATOM     22  CB  ARG A   1       2.734  -5.392  26.096  0.00  0.00    +0.030 C 
BRANCH  22  23
ATOM     23  CG  ARG A   1       3.841  -6.107  25.360  0.00  0.00    +0.045 C 
BRANCH  23  24
ATOM     24  CD  ARG A   1       3.238  -7.005  24.310  0.00  0.00    +0.174 C 
BRANCH  24  25
ATOM     25  NE  ARG A   1       4.254  -7.868  23.704  0.00  0.00    -0.265 N 
ATOM     26  CZ  ARG A   1       3.970  -9.169  23.506  0.00  0.00    +0.342 C 
ATOM     27  NH2 ARG A   1       2.798  -9.673  23.939  0.00  0.00    -0.292 N 
ATOM     28 HH21 ARG A   1       2.115  -9.057  24.425  0.00  0.00    +0.255 HD
ATOM     29 HH22 ARG A   1       2.576 -10.678  23.787  0.00  0.00    +0.255 HD
ATOM     30  NH1 ARG A   1       4.853  -9.947  22.862  0.00  0.00    -0.292 N 
ATOM     31 HH11 ARG A   1       4.642 -10.953  22.705  0.00  0.00    +0.255 HD
ATOM     32 HH12 ARG A   1       5.749  -9.544  22.520  0.00  0.00    +0.255 HD
ATOM     33  HE  ARG A   1       5.180  -7.482  23.431  0.00  0.00    +0.259 HD
ENDBRANCH  24  25
ENDBRANCH  23  24
ENDBRANCH  22  23
ENDBRANCH  19  22
ENDBRANCH   1  19
TORSDOF 11
REMARK  Name = ../refined-set-2016/1hvj/1hvj_pocket.pdb
REMARK  229 active torsions:
REMARK  status: ('A' for Active; 'I' for Inactive)
REMARK    1  A    between atoms: _1  and  _3
REMARK    2  A    between atoms: _3  and  _4
REMARK    3  A    between atoms: _3  and  _6
REMARK    4  A    between atoms: _6  and  _7
REMARK    5  A    between atoms: _7  and  _8
REMARK    6  A    between atoms: _8  and  _9
REMARK    7  A    between atoms: _19  and  _20
REMARK    8  A    between atoms: _25  and  _27
REMARK    9  A    between atoms: _27  and  _28
REMARK   10  A    between atoms: _27  and  _30
REMARK   11  A    between atoms: _30  and  _31
REMARK   12  A    between atoms: _34  and  _36
REMARK   13  A    between atoms: _36  and  _37
REMARK   14  A    between atoms: _36  and  _39
REMARK   15  A    between atoms: _39  and  _40
REMARK   16  A    between atoms: _43  and  _45
REMARK   17  A    between atoms: _45  and  _46
REMARK   18  A    between atoms: _45  and  _48
REMARK   19  A    between atoms: _48  and  _49
REMARK   20  A    between atoms: _52  and  _54
REMARK   21  A    between atoms: _54  and  _55
REMARK   22  A    between atoms: _54  and  _57
REMARK   23  A    between atoms: _57  and  _58
REMARK   24  A    between atoms: _61  and  _63
REMARK   25  A    between atoms: _63  and  _64
REMARK   26  A    between atoms: _63  and  _66
REMARK   27  A    between atoms: _66  and  _67
REMARK   28  A    between atoms: _70  and  _72
REMARK   29  A    between atoms: _72  and  _73
REMARK   30  A    between atoms: _75  and  _77
REMARK   31  A    between atoms: _77  and  _78
REMARK   32  A    between atoms: _81  and  _83
REMARK   33  A    between atoms: _83  and  _84
REMARK   34  A    between atoms: _83  and  _86
REMARK   35  A    between atoms: _86  and  _87
REMARK   36  A    between atoms: _90  and  _92
REMARK   37  A    between atoms: _92  and  _93
REMARK   38  A    between atoms: _92  and  _95
REMARK   39  A    between atoms: _95  and  _96
REMARK   40  A    between atoms: _99  and  _101
REMARK   41  A    between atoms: _101  and  _102
REMARK   42  A    between atoms: _101  and  _104
REMARK   43  A    between atoms: _104  and  _105
REMARK   44  A    between atoms: _108  and  _110
REMARK   45  A    between atoms: _110  and  _111
REMARK   46  A    between atoms: _110  and  _113
REMARK   47  A    between atoms: _116  and  _118
REMARK   48  A    between atoms: _118  and  _119
REMARK   49  A    between atoms: _118  and  _121
REMARK   50  A    between atoms: _121  and  _122
REMARK   51  A    between atoms: _122  and  _123
REMARK   52  A    between atoms: _123  and  _124
REMARK   53  A    between atoms: _124  and  _125
REMARK   54  A    between atoms: _129  and  _131
REMARK   55  A    between atoms: _131  and  _132
REMARK   56  A    between atoms: _131  and  _134
REMARK   57  A    between atoms: _134  and  _135
REMARK   58  A    between atoms: _135  and  _136
REMARK   59  A    between atoms: _138  and  _140
REMARK   60  A    between atoms: _140  and  _141
REMARK   61  A    between atoms: _140  and  _143
REMARK   62  A    between atoms: _143  and  _144
REMARK   63  A    between atoms: _147  and  _149
REMARK   64  A    between atoms: _149  and  _150
REMARK   65  A    between atoms: _152  and  _154
REMARK   66  A    between atoms: _154  and  _155
REMARK   67  A    between atoms: _157  and  _159
REMARK   68  A    between atoms: _159  and  _160
REMARK   69  A    between atoms: _159  and  _162
REMARK   70  A    between atoms: _162  and  _163
REMARK   71  A    between atoms: _166  and  _168
REMARK   72  A    between atoms: _168  and  _169
REMARK   73  A    between atoms: _171  and  _173
REMARK   74  A    between atoms: _173  and  _174
REMARK   75  A    between atoms: _176  and  _178
REMARK   76  A    between atoms: _178  and  _179
REMARK   77  A    between atoms: _178  and  _181
REMARK   78  A    between atoms: _181  and  _182
REMARK   79  A    between atoms: _188  and  _190
REMARK   80  A    between atoms: _190  and  _191
REMARK   81  A    between atoms: _190  and  _193
REMARK   82  A    between atoms: _193  and  _194
REMARK   83  A    between atoms: _197  and  _199
REMARK   84  A    between atoms: _199  and  _200
REMARK   85  A    between atoms: _199  and  _202
REMARK   86  A    between atoms: _202  and  _203
REMARK   87  A    between atoms: _207  and  _208
REMARK   88  A    between atoms: _213  and  _215
REMARK   89  A    between atoms: _215  and  _216
REMARK   90  A    between atoms: _215  and  _218
REMARK   91  A    between atoms: _218  and  _219
REMARK   92  A    between atoms: _223  and  _224
REMARK   93  A    between atoms: _229  and  _231
REMARK   94  A    between atoms: _231  and  _232
REMARK   95  A    between atoms: _231  and  _234
REMARK   96  A    between atoms: _237  and  _239
REMARK   97  A    between atoms: _239  and  _240
REMARK   98  A    between atoms: _239  and  _242
REMARK   99  A    between atoms: _242  and  _243
REMARK  100  A    between atoms: _248  and  _250
REMARK  101  A    between atoms: _250  and  _251
REMARK  102  A    between atoms: _250  and  _253
REMARK  103  A    between atoms: _253  and  _254
REMARK  104  A    between atoms: _257  and  _259
REMARK  105  A    between atoms: _259  and  _260
REMARK  106  A    between atoms: _259  and  _262
REMARK  107  A    between atoms: _262  and  _263
REMARK  108  A    between atoms: _266  and  _268
REMARK  109  A    between atoms: _268  and  _269
REMARK  110  A    between atoms: _271  and  _273
REMARK  111  A    between atoms: _273  and  _274
REMARK  112  A    between atoms: _273  and  _276
REMARK  113  A    between atoms: _276  and  _277
REMARK  114  A    between atoms: _277  and  _278
REMARK  115  A    between atoms: _278  and  _279
REMARK  116  A    between atoms: _288  and  _290
REMARK  117  A    between atoms: _290  and  _291
REMARK  118  A    between atoms: _290  and  _293
REMARK  119  A    between atoms: _293  and  _294
REMARK  120  A    between atoms: _294  and  _295
REMARK  121  A    between atoms: _295  and  _296
REMARK  122  A    between atoms: _305  and  _307
REMARK  123  A    between atoms: _307  and  _308
REMARK  124  A    between atoms: _307  and  _310
REMARK  125  A    between atoms: _310  and  _311
REMARK  126  A    between atoms: _314  and  _316
REMARK  127  A    between atoms: _316  and  _317
REMARK  128  A    between atoms: _316  and  _319
REMARK  129  A    between atoms: _319  and  _320
REMARK  130  A    between atoms: _323  and  _325
REMARK  131  A    between atoms: _325  and  _326
REMARK  132  A    between atoms: _325  and  _328
REMARK  133  A    between atoms: _328  and  _329
REMARK  134  A    between atoms: _332  and  _334
REMARK  135  A    between atoms: _334  and  _335
REMARK  136  A    between atoms: _334  and  _337
REMARK  137  A    between atoms: _337  and  _338
REMARK  138  A    between atoms: _341  and  _343
REMARK  139  A    between atoms: _343  and  _344
REMARK  140  A    between atoms: _343  and  _346
REMARK  141  A    between atoms: _346  and  _347
REMARK  142  A    between atoms: _350  and  _352
REMARK  143  A    between atoms: _352  and  _353
REMARK  144  A    between atoms: _355  and  _357
REMARK  145  A    between atoms: _357  and  _358
REMARK  146  A    between atoms: _361  and  _363
REMARK  147  A    between atoms: _363  and  _364
REMARK  148  A    between atoms: _363  and  _366
REMARK  149  A    between atoms: _366  and  _367
REMARK  150  A    between atoms: _370  and  _372
REMARK  151  A    between atoms: _372  and  _373
REMARK  152  A    between atoms: _372  and  _375
REMARK  153  A    between atoms: _375  and  _376
REMARK  154  A    between atoms: _379  and  _381
REMARK  155  A    between atoms: _381  and  _382
REMARK  156  A    between atoms: _381  and  _384
REMARK  157  A    between atoms: _384  and  _385
REMARK  158  A    between atoms: _388  and  _390
REMARK  159  A    between atoms: _390  and  _391
REMARK  160  A    between atoms: _390  and  _393
REMARK  161  A    between atoms: _396  and  _398
REMARK  162  A    between atoms: _398  and  _399
REMARK  163  A    between atoms: _398  and  _401
REMARK  164  A    between atoms: _401  and  _402
REMARK  165  A    between atoms: _402  and  _403
REMARK  166  A    between atoms: _403  and  _404
REMARK  167  A    between atoms: _404  and  _405
REMARK  168  A    between atoms: _409  and  _411
REMARK  169  A    between atoms: _411  and  _412
REMARK  170  A    between atoms: _411  and  _414
REMARK  171  A    between atoms: _414  and  _415
REMARK  172  A    between atoms: _415  and  _416
REMARK  173  A    between atoms: _418  and  _420
REMARK  174  A    between atoms: _420  and  _421
REMARK  175  A    between atoms: _420  and  _423
REMARK  176  A    between atoms: _423  and  _424
REMARK  177  A    between atoms: _427  and  _429
REMARK  178  A    between atoms: _429  and  _430
REMARK  179  A    between atoms: _432  and  _434
REMARK  180  A    between atoms: _434  and  _435
REMARK  181  A    between atoms: _437  and  _439
REMARK  182  A    between atoms: _439  and  _440
REMARK  183  A    between atoms: _439  and  _442
REMARK  184  A    between atoms: _442  and  _443
REMARK  185  A    between atoms: _446  and  _448
REMARK  186  A    between atoms: _448  and  _449
REMARK  187  A    between atoms: _451  and  _453
REMARK  188  A    between atoms: _453  and  _454
REMARK  189  A    between atoms: _456  and  _458
REMARK  190  A    between atoms: _458  and  _459
REMARK  191  A    between atoms: _458  and  _461
REMARK  192  A    between atoms: _461  and  _462
REMARK  193  A    between atoms: _468  and  _470
REMARK  194  A    between atoms: _470  and  _471
REMARK  195  A    between atoms: _470  and  _473
REMARK  196  A    between atoms: _473  and  _474
REMARK  197  A    between atoms: _477  and  _479
REMARK  198  A    between atoms: _479  and  _480
REMARK  199  A    between atoms: _479  and  _482
REMARK  200  A    between atoms: _482  and  _483
REMARK  201  A    between atoms: _487  and  _488
REMARK  202  A    between atoms: _493  and  _495
REMARK  203  A    between atoms: _495  and  _496
REMARK  204  A    between atoms: _495  and  _498
REMARK  205  A    between atoms: _498  and  _499
REMARK  206  A    between atoms: _503  and  _504
REMARK  207  A    between atoms: _509  and  _511
REMARK  208  A    between atoms: _511  and  _512
REMARK  209  A    between atoms: _511  and  _514
REMARK  210  A    between atoms: _517  and  _519
REMARK  211  A    between atoms: _519  and  _520
REMARK  212  A    between atoms: _519  and  _522
REMARK  213  A    between atoms: _522  and  _523
REMARK  214  A    between atoms: _528  and  _530
REMARK  215  A    between atoms: _530  and  _531
REMARK  216  A    between atoms: _530  and  _533
REMARK  217  A    between atoms: _533  and  _534
REMARK  218  A    between atoms: _537  and  _539
REMARK  219  A    between atoms: _539  and  _540
REMARK  220  A    between atoms: _539  and  _542
REMARK  221  A    between atoms: _542  and  _543
REMARK  222  A    between atoms: _546  and  _548
REMARK  223  A    between atoms: _548  and  _549
REMARK  224  A    between atoms: _551  and  _553
REMARK  225  A    between atoms: _553  and  _554
REMARK  226  A    between atoms: _553  and  _556
REMARK  227  A    between atoms: _556  and  _557
REMARK  228  A    between atoms: _557  and  _558
REMARK  229  A    between atoms: _558  and  _559
REMARK                            x       y       z     vdW  Elec       q    Type
REMARK                         _______ _______ _______ _____ _____    ______ ____
ROOT
ATOM      1  C   GLY A   5       4.628   3.867  16.004  0.00  0.00    +0.243 C 
ATOM      2  N   ALA A   6       3.342   3.973  16.286  0.00  0.00    -0.297 N 
ATOM      3  H   ALA A   6       3.030   4.061  17.274  0.00  0.00    +0.150 HD
ATOM      4  O   GLY A   5       5.020   3.664  14.867  0.00  0.00    -0.273 OA
ENDROOT
BRANCH   2   5
ATOM      5  CA  ALA A   6       2.352   3.966  15.197  0.00  0.00    +0.149 C 
ATOM      6  CB  ALA A   6       1.231   3.007  15.572  0.00  0.00    +0.031 C 
BRANCH   5   7
ATOM      7  C   ALA A   6       1.709   5.331  14.903  0.00  0.00    +0.241 C 
ATOM      8  O   ALA A   6       1.187   6.035  15.770  0.00  0.00    -0.273 OA
ATOM      9  N   ASP A   7       1.713   5.696  13.625  0.00  0.00    -0.297 N 
ATOM     10  H   ASP A   7       2.237   5.162  12.903  0.00  0.00    +0.150 HD
BRANCH   9  11
ATOM     11  CA  ASP A   7       0.925   6.913  13.285  0.00  0.00    +0.160 C 
BRANCH  11  12
ATOM     12  C   ASP A   7      -0.583   6.815  13.341  0.00  0.00    +0.241 C 
ATOM     13  O   ASP A   7      -1.303   7.775  13.561  0.00  0.00    -0.273 OA
ATOM     14  N   ASP A   8      -1.021   5.602  13.098  0.00  0.00    -0.297 N 
ATOM     15  H   ASP A   8      -0.330   4.829  13.012  0.00  0.00    +0.150 HD
BRANCH  14  16
ATOM     16  CA  ASP A   8      -2.443   5.294  12.943  0.00  0.00    +0.160 C 
BRANCH  16  17
ATOM     17  C   ASP A   8      -2.937   4.202  13.869  0.00  0.00    +0.241 C 
ATOM     18  O   ASP A   8      -2.184   3.441  14.449  0.00  0.00    -0.273 OA
ATOM     19  N   THR A   9      -4.252   4.142  13.948  0.00  0.00    -0.295 N 
ATOM     20  H   THR A   9      -4.811   4.861  13.446  0.00  0.00    +0.150 HD
BRANCH  19  21
ATOM     21  CA  THR A   9      -4.964   3.110  14.710  0.00  0.00    +0.176 C 
BRANCH  21  22
ATOM     22  C   THR A   9      -5.525   2.022  13.831  0.00  0.00    +0.243 C 
ATOM     23  N   VAL A  10      -5.085   0.817  14.200  0.00  0.00    -0.298 N 
ATOM     24  H   VAL A  10      -4.450   0.753  15.021  0.00  0.00    +0.150 HD
ATOM     25  O   THR A   9      -6.284   2.234  12.898  0.00  0.00    -0.273 OA
BRANCH  23  26
ATOM     26  CA  VAL A  10      -5.454  -0.427  13.502  0.00  0.00    +0.137 C 
BRANCH  26  27
ATOM     27  CB  VAL A  10      -4.224  -1.059  12.826  0.00  0.00    +0.026 C 
ATOM     28  CG2 VAL A  10      -3.328  -0.010  12.195  0.00  0.00    +0.002 C 
ATOM     29  CG1 VAL A  10      -4.663  -2.058  11.756  0.00  0.00    +0.002 C 
ENDBRANCH  26  27
BRANCH  26  30
ATOM     30  C   VAL A  10      -6.075  -1.475  14.433  0.00  0.00    +0.227 C 
ATOM     31  O   VAL A  10      -5.523  -1.922  15.426  0.00  0.00    -0.286 OA
ENDBRANCH  26  30
ENDBRANCH  23  26
ENDBRANCH  21  22
BRANCH  21  32
ATOM     32  CB  THR A   9      -6.123   3.714  15.541  0.00  0.00    +0.137 C 
ATOM     33  CG2 THR A   9      -7.066   2.694  16.182  0.00  0.00    +0.034 C 
BRANCH  32  34
ATOM     34  OG1 THR A   9      -5.570   4.540  16.586  0.00  0.00    -0.382 OA
ATOM     35  HG1 THR A   9      -5.034   5.267  16.181  0.00  0.00    +0.210 HD
ENDBRANCH  32  34
ENDBRANCH  21  32
ENDBRANCH  19  21
ENDBRANCH  16  17
BRANCH  16  36
ATOM     36  CB  ASP A   8      -2.711   4.768  11.523  0.00  0.00    +0.143 C 
BRANCH  36  37
ATOM     37  CG  ASP A   8      -2.128   5.668  10.441  0.00  0.00    +0.367 C 
ATOM     38  OD2 ASP A   8      -2.549   6.823  10.338  0.00  0.00    -0.246 OA
ATOM     39  OD1 ASP A   8      -1.252   5.196   9.703  0.00  0.00    -0.246 OA
ENDBRANCH  36  37
ENDBRANCH  16  36
ENDBRANCH  14  16
ENDBRANCH  11  12
BRANCH  11  40
ATOM     40  CB  ASP A   7       1.139   7.383  11.868  0.00  0.00    +0.143 C 
BRANCH  40  41
ATOM     41  CG  ASP A   7       2.564   7.774  11.613  0.00  0.00    +0.367 C 
ATOM     42  OD2 ASP A   7       3.402   7.662  12.501  0.00  0.00    -0.246 OA
ATOM     43  OD1 ASP A   7       2.822   8.191  10.496  0.00  0.00    -0.246 OA
ENDBRANCH  40  41
ENDBRANCH  11  40
ENDBRANCH   9  11
ENDBRANCH   5   7
ENDBRANCH   2   5
BRANCH   1  44
ATOM     44  CA  GLY A   5       5.550   4.064  17.210  0.00  0.00    +0.176 C 
BRANCH  44  46
ATOM     45  C   THR A   4       4.550   5.541  18.863  0.00  0.00    +0.243 C 
ATOM     46  N   GLY A   5       4.904   4.305  18.518  0.00  0.00    -0.295 N 
ATOM     47  H   GLY A   5       4.727   3.511  19.166  0.00  0.00    +0.150 HD
ATOM     48  O   THR A   4       4.827   6.483  18.146  0.00  0.00    -0.273 OA
BRANCH  45  49
ATOM     49  CA  THR A   4       3.774   5.674  20.191  0.00  0.00    +0.176 C 
BRANCH  49  51
ATOM     50  C   ASP A   3       2.205   3.822  19.996  0.00  0.00    +0.241 C 
ATOM     51  N   THR A   4       3.132   4.458  20.734  0.00  0.00    -0.295 N 
ATOM     52  H   THR A   4       3.394   4.099  21.674  0.00  0.00    +0.150 HD
ATOM     53  O   ASP A   3       1.860   4.237  18.906  0.00  0.00    -0.273 OA
BRANCH  50  54
ATOM     54  CA  ASP A   3       1.689   2.518  20.566  0.00  0.00    +0.160 C 
BRANCH  54  57
ATOM     55  C   LEU A   2       0.548   2.148  22.603  0.00  0.00    +0.241 C 
ATOM     56  O   LEU A   2       1.633   1.877  23.102  0.00  0.00    -0.273 OA
ATOM     57  N   ASP A   3       0.471   2.629  21.388  0.00  0.00    -0.297 N 
ATOM     58  H   ASP A   3      -0.400   3.065  21.024  0.00  0.00    +0.150 HD
BRANCH  55  59
ATOM     59  CA  LEU A   2      -0.800   1.900  23.305  0.00  0.00    +0.149 C 
BRANCH  59  61
ATOM     60  C   LEU A   1      -1.551  -0.199  22.399  0.00  0.00    +0.238 C 
ATOM     61  N   LEU A   2      -1.131   0.474  23.478  0.00  0.00    -0.297 N 
ATOM     62  H   LEU A   2      -1.042   0.008  24.403  0.00  0.00    +0.150 HD
ATOM     63  O   LEU A   1      -1.775   0.327  21.315  0.00  0.00    -0.274 OA
BRANCH  60  64
ATOM     64  CA  LEU A   1      -1.758  -1.686  22.586  0.00  0.00    +0.145 C 
BRANCH  64  65
ATOM     65  N   LEU A   1      -3.109  -2.108  22.213  0.00  0.00    -0.238 NA
ATOM     66  H   LEU A   1      -3.342  -2.272  21.213  0.00  0.00    +0.142 HD
ENDBRANCH  64  65
BRANCH  64  67
ATOM     67  CB  LEU A   1      -0.801  -2.460  21.687  0.00  0.00    +0.026 C 
BRANCH  67  68
ATOM     68  CG  LEU A   1       0.697  -2.267  21.918  0.00  0.00    +0.002 C 
ATOM     69  CD2 LEU A   1       1.138  -2.810  23.281  0.00  0.00    +0.000 C 
ATOM     70  CD1 LEU A   1       1.472  -2.940  20.776  0.00  0.00    +0.000 C 
ENDBRANCH  67  68
ENDBRANCH  64  67
ENDBRANCH  60  64
ENDBRANCH  59  61
BRANCH  59  71
ATOM     71  CB  LEU A   2      -0.787   2.593  24.669  0.00  0.00    +0.029 C 
BRANCH  71  72
ATOM     72  CG  LEU A   2      -2.086   2.469  25.466  0.00  0.00    +0.002 C 
ATOM     73  CD2 LEU A   2      -1.917   3.131  26.825  0.00  0.00    +0.000 C 
ATOM     74  CD1 LEU A   2      -3.244   3.101  24.730  0.00  0.00    +0.000 C 
ENDBRANCH  71  72
ENDBRANCH  59  71
ENDBRANCH  55  59
ENDBRANCH  54  57
BRANCH  54  75
ATOM     75  CB  ASP A   3       1.353   1.507  19.450  0.00  0.00    +0.143 C 
BRANCH  75  76
ATOM     76  CG  ASP A   3       2.509   1.079  18.559  0.00  0.00    +0.367 C 
ATOM     77  OD2 ASP A   3       3.663   1.411  18.824  0.00  0.00    -0.246 OA
ATOM     78  OD1 ASP A   3       2.217   0.389  17.582  0.00  0.00    -0.246 OA
ENDBRANCH  75  76
ENDBRANCH  54  75
ENDBRANCH  50  54
ENDBRANCH  49  51
BRANCH  49  79
ATOM     79  CB  THR A   4       4.736   6.286  21.219  0.00  0.00    +0.137 C 
ATOM     80  CG2 THR A   4       4.048   6.540  22.559  0.00  0.00    +0.034 C 
BRANCH  79  81
ATOM     81  OG1 THR A   4       5.832   5.402  21.428  0.00  0.00    -0.382 OA
ATOM     82  HG1 THR A   4       6.309   5.261  20.572  0.00  0.00    +0.210 HD
ENDBRANCH  79  81
ENDBRANCH  49  79
ENDBRANCH  45  49
ENDBRANCH  44  46
ENDBRANCH   1  44
TORSDOF 35
REMARK  Name = ../refined-set-2016/1hvj/1hvj_pocket.pdb
REMARK  229 active torsions:
REMARK  status: ('A' for Active; 'I' for Inactive)
REMARK    1  A    between atoms: _1  and  _3
REMARK    2  A    between atoms: _3  and  _4
REMARK    3  A    between atoms: _3  and  _6
REMARK    4  A    between atoms: _6  and  _7
REMARK    5  A    between atoms: _7  and  _8
REMARK    6  A    between atoms: _8  and  _9
REMARK    7  A    between atoms: _19  and  _20
REMARK    8  A    between atoms: _25  and  _27
REMARK    9  A    between atoms: _27  and  _28
REMARK   10  A    between atoms: _27  and  _30
REMARK   11  A    between atoms: _30  and  _31
REMARK   12  A    between atoms: _34  and  _36
REMARK   13  A    between atoms: _36  and  _37
REMARK   14  A    between atoms: _36  and  _39
REMARK   15  A    between atoms: _39  and  _40
REMARK   16  A    between atoms: _43  and  _45
REMARK   17  A    between atoms: _45  and  _46
REMARK   18  A    between atoms: _45  and  _48
REMARK   19  A    between atoms: _48  and  _49
REMARK   20  A    between atoms: _52  and  _54
REMARK   21  A    between atoms: _54  and  _55
REMARK   22  A    between atoms: _54  and  _57
REMARK   23  A    between atoms: _57  and  _58
REMARK   24  A    between atoms: _61  and  _63
REMARK   25  A    between atoms: _63  and  _64
REMARK   26  A    between atoms: _63  and  _66
REMARK   27  A    between atoms: _66  and  _67
REMARK   28  A    between atoms: _70  and  _72
REMARK   29  A    between atoms: _72  and  _73
REMARK   30  A    between atoms: _75  and  _77
REMARK   31  A    between atoms: _77  and  _78
REMARK   32  A    between atoms: _81  and  _83
REMARK   33  A    between atoms: _83  and  _84
REMARK   34  A    between atoms: _83  and  _86
REMARK   35  A    between atoms: _86  and  _87
REMARK   36  A    between atoms: _90  and  _92
REMARK   37  A    between atoms: _92  and  _93
REMARK   38  A    between atoms: _92  and  _95
REMARK   39  A    between atoms: _95  and  _96
REMARK   40  A    between atoms: _99  and  _101
REMARK   41  A    between atoms: _101  and  _102
REMARK   42  A    between atoms: _101  and  _104
REMARK   43  A    between atoms: _104  and  _105
REMARK   44  A    between atoms: _108  and  _110
REMARK   45  A    between atoms: _110  and  _111
REMARK   46  A    between atoms: _110  and  _113
REMARK   47  A    between atoms: _116  and  _118
REMARK   48  A    between atoms: _118  and  _119
REMARK   49  A    between atoms: _118  and  _121
REMARK   50  A    between atoms: _121  and  _122
REMARK   51  A    between atoms: _122  and  _123
REMARK   52  A    between atoms: _123  and  _124
REMARK   53  A    between atoms: _124  and  _125
REMARK   54  A    between atoms: _129  and  _131
REMARK   55  A    between atoms: _131  and  _132
REMARK   56  A    between atoms: _131  and  _134
REMARK   57  A    between atoms: _134  and  _135
REMARK   58  A    between atoms: _135  and  _136
REMARK   59  A    between atoms: _138  and  _140
REMARK   60  A    between atoms: _140  and  _141
REMARK   61  A    between atoms: _140  and  _143
REMARK   62  A    between atoms: _143  and  _144
REMARK   63  A    between atoms: _147  and  _149
REMARK   64  A    between atoms: _149  and  _150
REMARK   65  A    between atoms: _152  and  _154
REMARK   66  A    between atoms: _154  and  _155
REMARK   67  A    between atoms: _157  and  _159
REMARK   68  A    between atoms: _159  and  _160
REMARK   69  A    between atoms: _159  and  _162
REMARK   70  A    between atoms: _162  and  _163
REMARK   71  A    between atoms: _166  and  _168
REMARK   72  A    between atoms: _168  and  _169
REMARK   73  A    between atoms: _171  and  _173
REMARK   74  A    between atoms: _173  and  _174
REMARK   75  A    between atoms: _176  and  _178
REMARK   76  A    between atoms: _178  and  _179
REMARK   77  A    between atoms: _178  and  _181
REMARK   78  A    between atoms: _181  and  _182
REMARK   79  A    between atoms: _188  and  _190
REMARK   80  A    between atoms: _190  and  _191
REMARK   81  A    between atoms: _190  and  _193
REMARK   82  A    between atoms: _193  and  _194
REMARK   83  A    between atoms: _197  and  _199
REMARK   84  A    between atoms: _199  and  _200
REMARK   85  A    between atoms: _199  and  _202
REMARK   86  A    between atoms: _202  and  _203
REMARK   87  A    between atoms: _207  and  _208
REMARK   88  A    between atoms: _213  and  _215
REMARK   89  A    between atoms: _215  and  _216
REMARK   90  A    between atoms: _215  and  _218
REMARK   91  A    between atoms: _218  and  _219
REMARK   92  A    between atoms: _223  and  _224
REMARK   93  A    between atoms: _229  and  _231
REMARK   94  A    between atoms: _231  and  _232
REMARK   95  A    between atoms: _231  and  _234
REMARK   96  A    between atoms: _237  and  _239
REMARK   97  A    between atoms: _239  and  _240
REMARK   98  A    between atoms: _239  and  _242
REMARK   99  A    between atoms: _242  and  _243
REMARK  100  A    between atoms: _248  and  _250
REMARK  101  A    between atoms: _250  and  _251
REMARK  102  A    between atoms: _250  and  _253
REMARK  103  A    between atoms: _253  and  _254
REMARK  104  A    between atoms: _257  and  _259
REMARK  105  A    between atoms: _259  and  _260
REMARK  106  A    between atoms: _259  and  _262
REMARK  107  A    between atoms: _262  and  _263
REMARK  108  A    between atoms: _266  and  _268
REMARK  109  A    between atoms: _268  and  _269
REMARK  110  A    between atoms: _271  and  _273
REMARK  111  A    between atoms: _273  and  _274
REMARK  112  A    between atoms: _273  and  _276
REMARK  113  A    between atoms: _276  and  _277
REMARK  114  A    between atoms: _277  and  _278
REMARK  115  A    between atoms: _278  and  _279
REMARK  116  A    between atoms: _288  and  _290
REMARK  117  A    between atoms: _290  and  _291
REMARK  118  A    between atoms: _290  and  _293
REMARK  119  A    between atoms: _293  and  _294
REMARK  120  A    between atoms: _294  and  _295
REMARK  121  A    between atoms: _295  and  _296
REMARK  122  A    between atoms: _305  and  _307
REMARK  123  A    between atoms: _307  and  _308
REMARK  124  A    between atoms: _307  and  _310
REMARK  125  A    between atoms: _310  and  _311
REMARK  126  A    between atoms: _314  and  _316
REMARK  127  A    between atoms: _316  and  _317
REMARK  128  A    between atoms: _316  and  _319
REMARK  129  A    between atoms: _319  and  _320
REMARK  130  A    between atoms: _323  and  _325
REMARK  131  A    between atoms: _325  and  _326
REMARK  132  A    between atoms: _325  and  _328
REMARK  133  A    between atoms: _328  and  _329
REMARK  134  A    between atoms: _332  and  _334
REMARK  135  A    between atoms: _334  and  _335
REMARK  136  A    between atoms: _334  and  _337
REMARK  137  A    between atoms: _337  and  _338
REMARK  138  A    between atoms: _341  and  _343
REMARK  139  A    between atoms: _343  and  _344
REMARK  140  A    between atoms: _343  and  _346
REMARK  141  A    between atoms: _346  and  _347
REMARK  142  A    between atoms: _350  and  _352
REMARK  143  A    between atoms: _352  and  _353
REMARK  144  A    between atoms: _355  and  _357
REMARK  145  A    between atoms: _357  and  _358
REMARK  146  A    between atoms: _361  and  _363
REMARK  147  A    between atoms: _363  and  _364
REMARK  148  A    between atoms: _363  and  _366
REMARK  149  A    between atoms: _366  and  _367
REMARK  150  A    between atoms: _370  and  _372
REMARK  151  A    between atoms: _372  and  _373
REMARK  152  A    between atoms: _372  and  _375
REMARK  153  A    between atoms: _375  and  _376
REMARK  154  A    between atoms: _379  and  _381
REMARK  155  A    between atoms: _381  and  _382
REMARK  156  A    between atoms: _381  and  _384
REMARK  157  A    between atoms: _384  and  _385
REMARK  158  A    between atoms: _388  and  _390
REMARK  159  A    between atoms: _390  and  _391
REMARK  160  A    between atoms: _390  and  _393
REMARK  161  A    between atoms: _396  and  _398
REMARK  162  A    between atoms: _398  and  _399
REMARK  163  A    between atoms: _398  and  _401
REMARK  164  A    between atoms: _401  and  _402
REMARK  165  A    between atoms: _402  and  _403
REMARK  166  A    between atoms: _403  and  _404
REMARK  167  A    between atoms: _404  and  _405
REMARK  168  A    between atoms: _409  and  _411
REMARK  169  A    between atoms: _411  and  _412
REMARK  170  A    between atoms: _411  and  _414
REMARK  171  A    between atoms: _414  and  _415
REMARK  172  A    between atoms: _415  and  _416
REMARK  173  A    between atoms: _418  and  _420
REMARK  174  A    between atoms: _420  and  _421
REMARK  175  A    between atoms: _420  and  _423
REMARK  176  A    between atoms: _423  and  _424
REMARK  177  A    between atoms: _427  and  _429
REMARK  178  A    between atoms: _429  and  _430
REMARK  179  A    between atoms: _432  and  _434
REMARK  180  A    between atoms: _434  and  _435
REMARK  181  A    between atoms: _437  and  _439
REMARK  182  A    between atoms: _439  and  _440
REMARK  183  A    between atoms: _439  and  _442
REMARK  184  A    between atoms: _442  and  _443
REMARK  185  A    between atoms: _446  and  _448
REMARK  186  A    between atoms: _448  and  _449
REMARK  187  A    between atoms: _451  and  _453
REMARK  188  A    between atoms: _453  and  _454
REMARK  189  A    between atoms: _456  and  _458
REMARK  190  A    between atoms: _458  and  _459
REMARK  191  A    between atoms: _458  and  _461
REMARK  192  A    between atoms: _461  and  _462
REMARK  193  A    between atoms: _468  and  _470
REMARK  194  A    between atoms: _470  and  _471
REMARK  195  A    between atoms: _470  and  _473
REMARK  196  A    between atoms: _473  and  _474
REMARK  197  A    between atoms: _477  and  _479
REMARK  198  A    between atoms: _479  and  _480
REMARK  199  A    between atoms: _479  and  _482
REMARK  200  A    between atoms: _482  and  _483
REMARK  201  A    between atoms: _487  and  _488
REMARK  202  A    between atoms: _493  and  _495
REMARK  203  A    between atoms: _495  and  _496
REMARK  204  A    between atoms: _495  and  _498
REMARK  205  A    between atoms: _498  and  _499
REMARK  206  A    between atoms: _503  and  _504
REMARK  207  A    between atoms: _509  and  _511
REMARK  208  A    between atoms: _511  and  _512
REMARK  209  A    between atoms: _511  and  _514
REMARK  210  A    between atoms: _517  and  _519
REMARK  211  A    between atoms: _519  and  _520
REMARK  212  A    between atoms: _519  and  _522
REMARK  213  A    between atoms: _522  and  _523
REMARK  214  A    between atoms: _528  and  _530
REMARK  215  A    between atoms: _530  and  _531
REMARK  216  A    between atoms: _530  and  _533
REMARK  217  A    between atoms: _533  and  _534
REMARK  218  A    between atoms: _537  and  _539
REMARK  219  A    between atoms: _539  and  _540
REMARK  220  A    between atoms: _539  and  _542
REMARK  221  A    between atoms: _542  and  _543
REMARK  222  A    between atoms: _546  and  _548
REMARK  223  A    between atoms: _548  and  _549
REMARK  224  A    between atoms: _551  and  _553
REMARK  225  A    between atoms: _553  and  _554
REMARK  226  A    between atoms: _553  and  _556
REMARK  227  A    between atoms: _556  and  _557
REMARK  228  A    between atoms: _557  and  _558
REMARK  229  A    between atoms: _558  and  _559
REMARK                            x       y       z     vdW  Elec       q    Type
REMARK                         _______ _______ _______ _____ _____    ______ ____
ROOT
ATOM      1  C   GLY A   5       6.327  -2.488   8.565  0.00  0.00    +0.243 C 
ATOM      2  N   ILE A   6       6.792  -3.104   9.646  0.00  0.00    -0.297 N 
ATOM      3  H   ILE A   6       6.536  -2.790  10.604  0.00  0.00    +0.150 HD
ATOM      4  O   GLY A   5       6.763  -2.759   7.458  0.00  0.00    -0.273 OA
ENDROOT
BRANCH   2   5
ATOM      5  CA  ILE A   6       7.691  -4.258   9.423  0.00  0.00    +0.149 C 
BRANCH   5   6
ATOM      6  C   ILE A   6       7.004  -5.368   8.655  0.00  0.00    +0.241 C 
ATOM      7  O   ILE A   6       5.892  -5.807   8.928  0.00  0.00    -0.273 OA
ATOM      8  N   GLY A   7       7.687  -5.764   7.610  0.00  0.00    -0.295 N 
ATOM      9  H   GLY A   7       8.582  -5.307   7.341  0.00  0.00    +0.150 HD
BRANCH   8  10
ATOM     10  CA  GLY A   7       7.136  -6.877   6.839  0.00  0.00    +0.176 C 
BRANCH  10  11
ATOM     11  C   GLY A   7       6.393  -6.492   5.592  0.00  0.00    +0.243 C 
ATOM     12  N   GLY A   8       5.987  -5.246   5.558  0.00  0.00    -0.295 N 
ATOM     13  H   GLY A   8       6.159  -4.577   6.335  0.00  0.00    +0.150 HD
ATOM     14  O   GLY A   7       6.181  -7.267   4.677  0.00  0.00    -0.273 OA
BRANCH  12  15
ATOM     15  CA  GLY A   8       5.273  -4.874   4.337  0.00  0.00    +0.176 C 
BRANCH  15  16
ATOM     16  C   GLY A   8       3.919  -4.223   4.550  0.00  0.00    +0.243 C 
ATOM     17  O   GLY A   8       3.678  -3.503   5.509  0.00  0.00    -0.273 OA
ATOM     18  N   PHE A   9       3.049  -4.475   3.585  0.00  0.00    -0.297 N 
ATOM     19  H   PHE A   9       3.281  -5.172   2.849  0.00  0.00    +0.150 HD
BRANCH  18  20
ATOM     20  CA  PHE A   9       1.752  -3.774   3.547  0.00  0.00    +0.153 C 
BRANCH  20  21
ATOM     21  C   PHE A   9       0.547  -4.667   3.714  0.00  0.00    +0.241 C 
ATOM     22  N   ILE A  10      -0.397  -4.158   4.501  0.00  0.00    -0.298 N 
ATOM     23  H   ILE A  10      -0.197  -3.314   5.075  0.00  0.00    +0.150 HD
ATOM     24  O   PHE A   9       0.453  -5.740   3.143  0.00  0.00    -0.273 OA
BRANCH  22  25
ATOM     25  CA  ILE A  10      -1.715  -4.786   4.558  0.00  0.00    +0.137 C 
BRANCH  25  26
ATOM     26  C   ILE A  10      -2.852  -3.893   4.087  0.00  0.00    +0.227 C 
ATOM     27  O   ILE A  10      -2.815  -2.673   4.177  0.00  0.00    -0.286 OA
ENDBRANCH  25  26
BRANCH  25  28
ATOM     28  CB  ILE A  10      -2.002  -5.324   5.960  0.00  0.00    +0.026 C 
ATOM     29  CG2 ILE A  10      -0.953  -6.357   6.326  0.00  0.00    +0.002 C 
BRANCH  28  30
ATOM     30  CG1 ILE A  10      -2.135  -4.304   7.090  0.00  0.00    +0.002 C 
ATOM     31  CD1 ILE A  10      -2.778  -4.905   8.345  0.00  0.00    +0.000 C 
ENDBRANCH  28  30
ENDBRANCH  25  28
ENDBRANCH  22  25
ENDBRANCH  20  21
BRANCH  20  32
ATOM     32  CB  PHE A   9       1.507  -3.073   2.207  0.00  0.00    +0.055 C 
BRANCH  32  33
ATOM     33  CG  PHE A   9       2.398  -1.872   2.032  0.00  0.00    -0.020 A 
ATOM     34  CD2 PHE A   9       1.970  -0.609   2.494  0.00  0.00    -0.004 A 
ATOM     35  CE2 PHE A   9       2.837   0.508   2.371  0.00  0.00    -0.000 A 
ATOM     36  CZ  PHE A   9       4.109   0.356   1.787  0.00  0.00    -0.000 A 
ATOM     37  CE1 PHE A   9       4.520  -0.906   1.323  0.00  0.00    -0.000 A 
ATOM     38  CD1 PHE A   9       3.667  -2.021   1.443  0.00  0.00    -0.004 A 
ENDBRANCH  32  33
ENDBRANCH  20  32
ENDBRANCH  18  20
ENDBRANCH  15  16
ENDBRANCH  12  15
ENDBRANCH  10  11
ENDBRANCH   8  10
ENDBRANCH   5   6
BRANCH   5  39
ATOM     39  CB  ILE A   6       8.192  -4.832  10.745  0.00  0.00    +0.027 C 
ATOM     40  CG2 ILE A   6       8.967  -6.120  10.554  0.00  0.00    +0.002 C 
BRANCH  39  41
ATOM     41  CG1 ILE A   6       9.041  -3.837  11.536  0.00  0.00    +0.002 C 
ATOM     42  CD1 ILE A   6      10.389  -3.491  10.890  0.00  0.00    +0.000 C 
ENDBRANCH  39  41
ENDBRANCH   5  39
ENDBRANCH   2   5
BRANCH   1  43
ATOM     43  CA  GLY A   5       5.178  -1.504   8.745  0.00  0.00    +0.176 C 
BRANCH  43  46
ATOM     44  C   GLY A   4       3.326  -0.564   7.506  0.00  0.00    +0.243 C 
ATOM     45  O   GLY A   4       3.094   0.286   8.357  0.00  0.00    -0.273 OA
ATOM     46  N   GLY A   5       4.241  -1.505   7.610  0.00  0.00    -0.295 N 
ATOM     47  H   GLY A   5       4.302  -2.251   6.888  0.00  0.00    +0.150 HD
BRANCH  44  48
ATOM     48  CA  GLY A   4       2.612  -0.644   6.184  0.00  0.00    +0.176 C 
BRANCH  48  50
ATOM     49  C   ILE A   3       0.329  -0.370   5.738  0.00  0.00    +0.241 C 
ATOM     50  N   GLY A   4       1.461   0.215   6.045  0.00  0.00    -0.295 N 
ATOM     51  H   GLY A   4       1.526   1.244   6.181  0.00  0.00    +0.150 HD
ATOM     52  O   ILE A   3       0.236  -1.576   5.608  0.00  0.00    -0.273 OA
BRANCH  49  53
ATOM     53  CA  ILE A   3      -0.841   0.568   5.530  0.00  0.00    +0.149 C 
BRANCH  53  55
ATOM     54  C   MET A   2      -2.386   0.945   3.684  0.00  0.00    +0.241 C 
ATOM     55  N   ILE A   3      -1.834   0.090   4.548  0.00  0.00    -0.297 N 
ATOM     56  H   ILE A   3      -2.104  -0.914   4.529  0.00  0.00    +0.150 HD
ATOM     57  O   MET A   2      -2.216   2.154   3.740  0.00  0.00    -0.273 OA
BRANCH  54  58
ATOM     58  CA  MET A   2      -3.253   0.297   2.597  0.00  0.00    +0.149 C 
BRANCH  58  61
ATOM     59  C   LYS A   1      -5.624   0.676   2.428  0.00  0.00    +0.238 C 
ATOM     60  O   LYS A   1      -5.833  -0.474   2.782  0.00  0.00    -0.274 OA
ATOM     61  N   MET A   2      -4.397   1.113   2.167  0.00  0.00    -0.297 N 
ATOM     62  H   MET A   2      -4.249   2.014   1.669  0.00  0.00    +0.150 HD
BRANCH  59  63
ATOM     63  CA  LYS A   1      -6.761   1.700   2.284  0.00  0.00    +0.145 C 
BRANCH  63  64
ATOM     64  N   LYS A   1      -8.067   1.055   2.166  0.00  0.00    -0.238 NA
ATOM     65  H   LYS A   1      -8.306   0.268   2.802  0.00  0.00    +0.142 HD
ENDBRANCH  63  64
BRANCH  63  66
ATOM     66  CB  LYS A   1      -6.864   2.590   3.522  0.00  0.00    +0.026 C 
BRANCH  66  67
ATOM     67  CG  LYS A   1      -5.675   3.501   3.736  0.00  0.00    -0.000 C 
BRANCH  67  68
ATOM     68  CD  LYS A   1      -5.668   4.091   5.137  0.00  0.00    -0.024 C 
BRANCH  68  69
ATOM     69  CE  LYS A   1      -4.427   4.968   5.339  0.00  0.00    -0.086 C 
BRANCH  69  70
ATOM     70  NZ  LYS A   1      -4.587   5.801   6.543  0.00  0.00    +0.380 N 
ATOM     71  HZ1 LYS A   1      -4.711   5.187   7.374  0.00  0.00    -0.089 HD
ATOM     72  HZ2 LYS A   1      -3.740   6.391   6.670  0.00  0.00    -0.089 HD
ATOM     73  HZ3 LYS A   1      -5.422   6.411   6.433  0.00  0.00    -0.089 HD
ENDBRANCH  69  70
ENDBRANCH  68  69
ENDBRANCH  67  68
ENDBRANCH  66  67
ENDBRANCH  63  66
ENDBRANCH  59  63
ENDBRANCH  58  61
BRANCH  58  74
ATOM     74  CB  MET A   2      -2.327  -0.017   1.418  0.00  0.00    +0.041 C 
BRANCH  74  75
ATOM     75  CG  MET A   2      -3.073  -0.465   0.165  0.00  0.00    +0.060 C 
BRANCH  75  76
ATOM     76  SD  MET A   2      -2.814  -2.173  -0.253  0.00  0.00    -0.139 S 
ATOM     77  CE  MET A   2      -1.024  -2.131  -0.182  0.00  0.00    +0.069 C 
ENDBRANCH  75  76
ENDBRANCH  74  75
ENDBRANCH  58  74
ENDBRANCH  54  58
ENDBRANCH  53  55
BRANCH  53  78
ATOM     78  CB  ILE A   3      -1.449   0.877   6.910  0.00  0.00    +0.027 C 
ATOM     79  CG2 ILE A   3      -2.216   2.199   6.907  0.00  0.00    +0.002 C 
BRANCH  78  80
ATOM     80  CG1 ILE A   3      -2.316  -0.247   7.472  0.00  0.00    +0.002 C 
ATOM     81  CD1 ILE A   3      -1.566  -1.073   8.508  0.00  0.00    +0.000 C 
ENDBRANCH  78  80
ENDBRANCH  53  78
ENDBRANCH  49  53
ENDBRANCH  48  50
ENDBRANCH  44  48
ENDBRANCH  43  46
ENDBRANCH   1  43
TORSDOF 36
REMARK  Name = ../refined-set-2016/1hvj/1hvj_pocket.pdb
REMARK  229 active torsions:
REMARK  status: ('A' for Active; 'I' for Inactive)
REMARK    1  A    between atoms: _1  and  _3
REMARK    2  A    between atoms: _3  and  _4
REMARK    3  A    between atoms: _3  and  _6
REMARK    4  A    between atoms: _6  and  _7
REMARK    5  A    between atoms: _7  and  _8
REMARK    6  A    between atoms: _8  and  _9
REMARK    7  A    between atoms: _19  and  _20
REMARK    8  A    between atoms: _25  and  _27
REMARK    9  A    between atoms: _27  and  _28
REMARK   10  A    between atoms: _27  and  _30
REMARK   11  A    between atoms: _30  and  _31
REMARK   12  A    between atoms: _34  and  _36
REMARK   13  A    between atoms: _36  and  _37
REMARK   14  A    between atoms: _36  and  _39
REMARK   15  A    between atoms: _39  and  _40
REMARK   16  A    between atoms: _43  and  _45
REMARK   17  A    between atoms: _45  and  _46
REMARK   18  A    between atoms: _45  and  _48
REMARK   19  A    between atoms: _48  and  _49
REMARK   20  A    between atoms: _52  and  _54
REMARK   21  A    between atoms: _54  and  _55
REMARK   22  A    between atoms: _54  and  _57
REMARK   23  A    between atoms: _57  and  _58
REMARK   24  A    between atoms: _61  and  _63
REMARK   25  A    between atoms: _63  and  _64
REMARK   26  A    between atoms: _63  and  _66
REMARK   27  A    between atoms: _66  and  _67
REMARK   28  A    between atoms: _70  and  _72
REMARK   29  A    between atoms: _72  and  _73
REMARK   30  A    between atoms: _75  and  _77
REMARK   31  A    between atoms: _77  and  _78
REMARK   32  A    between atoms: _81  and  _83
REMARK   33  A    between atoms: _83  and  _84
REMARK   34  A    between atoms: _83  and  _86
REMARK   35  A    between atoms: _86  and  _87
REMARK   36  A    between atoms: _90  and  _92
REMARK   37  A    between atoms: _92  and  _93
REMARK   38  A    between atoms: _92  and  _95
REMARK   39  A    between atoms: _95  and  _96
REMARK   40  A    between atoms: _99  and  _101
REMARK   41  A    between atoms: _101  and  _102
REMARK   42  A    between atoms: _101  and  _104
REMARK   43  A    between atoms: _104  and  _105
REMARK   44  A    between atoms: _108  and  _110
REMARK   45  A    between atoms: _110  and  _111
REMARK   46  A    between atoms: _110  and  _113
REMARK   47  A    between atoms: _116  and  _118
REMARK   48  A    between atoms: _118  and  _119
REMARK   49  A    between atoms: _118  and  _121
REMARK   50  A    between atoms: _121  and  _122
REMARK   51  A    between atoms: _122  and  _123
REMARK   52  A    between atoms: _123  and  _124
REMARK   53  A    between atoms: _124  and  _125
REMARK   54  A    between atoms: _129  and  _131
REMARK   55  A    between atoms: _131  and  _132
REMARK   56  A    between atoms: _131  and  _134
REMARK   57  A    between atoms: _134  and  _135
REMARK   58  A    between atoms: _135  and  _136
REMARK   59  A    between atoms: _138  and  _140
REMARK   60  A    between atoms: _140  and  _141
REMARK   61  A    between atoms: _140  and  _143
REMARK   62  A    between atoms: _143  and  _144
REMARK   63  A    between atoms: _147  and  _149
REMARK   64  A    between atoms: _149  and  _150
REMARK   65  A    between atoms: _152  and  _154
REMARK   66  A    between atoms: _154  and  _155
REMARK   67  A    between atoms: _157  and  _159
REMARK   68  A    between atoms: _159  and  _160
REMARK   69  A    between atoms: _159  and  _162
REMARK   70  A    between atoms: _162  and  _163
REMARK   71  A    between atoms: _166  and  _168
REMARK   72  A    between atoms: _168  and  _169
REMARK   73  A    between atoms: _171  and  _173
REMARK   74  A    between atoms: _173  and  _174
REMARK   75  A    between atoms: _176  and  _178
REMARK   76  A    between atoms: _178  and  _179
REMARK   77  A    between atoms: _178  and  _181
REMARK   78  A    between atoms: _181  and  _182
REMARK   79  A    between atoms: _188  and  _190
REMARK   80  A    between atoms: _190  and  _191
REMARK   81  A    between atoms: _190  and  _193
REMARK   82  A    between atoms: _193  and  _194
REMARK   83  A    between atoms: _197  and  _199
REMARK   84  A    between atoms: _199  and  _200
REMARK   85  A    between atoms: _199  and  _202
REMARK   86  A    between atoms: _202  and  _203
REMARK   87  A    between atoms: _207  and  _208
REMARK   88  A    between atoms: _213  and  _215
REMARK   89  A    between atoms: _215  and  _216
REMARK   90  A    between atoms: _215  and  _218
REMARK   91  A    between atoms: _218  and  _219
REMARK   92  A    between atoms: _223  and  _224
REMARK   93  A    between atoms: _229  and  _231
REMARK   94  A    between atoms: _231  and  _232
REMARK   95  A    between atoms: _231  and  _234
REMARK   96  A    between atoms: _237  and  _239
REMARK   97  A    between atoms: _239  and  _240
REMARK   98  A    between atoms: _239  and  _242
REMARK   99  A    between atoms: _242  and  _243
REMARK  100  A    between atoms: _248  and  _250
REMARK  101  A    between atoms: _250  and  _251
REMARK  102  A    between atoms: _250  and  _253
REMARK  103  A    between atoms: _253  and  _254
REMARK  104  A    between atoms: _257  and  _259
REMARK  105  A    between atoms: _259  and  _260
REMARK  106  A    between atoms: _259  and  _262
REMARK  107  A    between atoms: _262  and  _263
REMARK  108  A    between atoms: _266  and  _268
REMARK  109  A    between atoms: _268  and  _269
REMARK  110  A    between atoms: _271  and  _273
REMARK  111  A    between atoms: _273  and  _274
REMARK  112  A    between atoms: _273  and  _276
REMARK  113  A    between atoms: _276  and  _277
REMARK  114  A    between atoms: _277  and  _278
REMARK  115  A    between atoms: _278  and  _279
REMARK  116  A    between atoms: _288  and  _290
REMARK  117  A    between atoms: _290  and  _291
REMARK  118  A    between atoms: _290  and  _293
REMARK  119  A    between atoms: _293  and  _294
REMARK  120  A    between atoms: _294  and  _295
REMARK  121  A    between atoms: _295  and  _296
REMARK  122  A    between atoms: _305  and  _307
REMARK  123  A    between atoms: _307  and  _308
REMARK  124  A    between atoms: _307  and  _310
REMARK  125  A    between atoms: _310  and  _311
REMARK  126  A    between atoms: _314  and  _316
REMARK  127  A    between atoms: _316  and  _317
REMARK  128  A    between atoms: _316  and  _319
REMARK  129  A    between atoms: _319  and  _320
REMARK  130  A    between atoms: _323  and  _325
REMARK  131  A    between atoms: _325  and  _326
REMARK  132  A    between atoms: _325  and  _328
REMARK  133  A    between atoms: _328  and  _329
REMARK  134  A    between atoms: _332  and  _334
REMARK  135  A    between atoms: _334  and  _335
REMARK  136  A    between atoms: _334  and  _337
REMARK  137  A    between atoms: _337  and  _338
REMARK  138  A    between atoms: _341  and  _343
REMARK  139  A    between atoms: _343  and  _344
REMARK  140  A    between atoms: _343  and  _346
REMARK  141  A    between atoms: _346  and  _347
REMARK  142  A    between atoms: _350  and  _352
REMARK  143  A    between atoms: _352  and  _353
REMARK  144  A    between atoms: _355  and  _357
REMARK  145  A    between atoms: _357  and  _358
REMARK  146  A    between atoms: _361  and  _363
REMARK  147  A    between atoms: _363  and  _364
REMARK  148  A    between atoms: _363  and  _366
REMARK  149  A    between atoms: _366  and  _367
REMARK  150  A    between atoms: _370  and  _372
REMARK  151  A    between atoms: _372  and  _373
REMARK  152  A    between atoms: _372  and  _375
REMARK  153  A    between atoms: _375  and  _376
REMARK  154  A    between atoms: _379  and  _381
REMARK  155  A    between atoms: _381  and  _382
REMARK  156  A    between atoms: _381  and  _384
REMARK  157  A    between atoms: _384  and  _385
REMARK  158  A    between atoms: _388  and  _390
REMARK  159  A    between atoms: _390  and  _391
REMARK  160  A    between atoms: _390  and  _393
REMARK  161  A    between atoms: _396  and  _398
REMARK  162  A    between atoms: _398  and  _399
REMARK  163  A    between atoms: _398  and  _401
REMARK  164  A    between atoms: _401  and  _402
REMARK  165  A    between atoms: _402  and  _403
REMARK  166  A    between atoms: _403  and  _404
REMARK  167  A    between atoms: _404  and  _405
REMARK  168  A    between atoms: _409  and  _411
REMARK  169  A    between atoms: _411  and  _412
REMARK  170  A    between atoms: _411  and  _414
REMARK  171  A    between atoms: _414  and  _415
REMARK  172  A    between atoms: _415  and  _416
REMARK  173  A    between atoms: _418  and  _420
REMARK  174  A    between atoms: _420  and  _421
REMARK  175  A    between atoms: _420  and  _423
REMARK  176  A    between atoms: _423  and  _424
REMARK  177  A    between atoms: _427  and  _429
REMARK  178  A    between atoms: _429  and  _430
REMARK  179  A    between atoms: _432  and  _434
REMARK  180  A    between atoms: _434  and  _435
REMARK  181  A    between atoms: _437  and  _439
REMARK  182  A    between atoms: _439  and  _440
REMARK  183  A    between atoms: _439  and  _442
REMARK  184  A    between atoms: _442  and  _443
REMARK  185  A    between atoms: _446  and  _448
REMARK  186  A    between atoms: _448  and  _449
REMARK  187  A    between atoms: _451  and  _453
REMARK  188  A    between atoms: _453  and  _454
REMARK  189  A    between atoms: _456  and  _458
REMARK  190  A    between atoms: _458  and  _459
REMARK  191  A    between atoms: _458  and  _461
REMARK  192  A    between atoms: _461  and  _462
REMARK  193  A    between atoms: _468  and  _470
REMARK  194  A    between atoms: _470  and  _471
REMARK  195  A    between atoms: _470  and  _473
REMARK  196  A    between atoms: _473  and  _474
REMARK  197  A    between atoms: _477  and  _479
REMARK  198  A    between atoms: _479  and  _480
REMARK  199  A    between atoms: _479  and  _482
REMARK  200  A    between atoms: _482  and  _483
REMARK  201  A    between atoms: _487  and  _488
REMARK  202  A    between atoms: _493  and  _495
REMARK  203  A    between atoms: _495  and  _496
REMARK  204  A    between atoms: _495  and  _498
REMARK  205  A    between atoms: _498  and  _499
REMARK  206  A    between atoms: _503  and  _504
REMARK  207  A    between atoms: _509  and  _511
REMARK  208  A    between atoms: _511  and  _512
REMARK  209  A    between atoms: _511  and  _514
REMARK  210  A    between atoms: _517  and  _519
REMARK  211  A    between atoms: _519  and  _520
REMARK  212  A    between atoms: _519  and  _522
REMARK  213  A    between atoms: _522  and  _523
REMARK  214  A    between atoms: _528  and  _530
REMARK  215  A    between atoms: _530  and  _531
REMARK  216  A    between atoms: _530  and  _533
REMARK  217  A    between atoms: _533  and  _534
REMARK  218  A    between atoms: _537  and  _539
REMARK  219  A    between atoms: _539  and  _540
REMARK  220  A    between atoms: _539  and  _542
REMARK  221  A    between atoms: _542  and  _543
REMARK  222  A    between atoms: _546  and  _548
REMARK  223  A    between atoms: _548  and  _549
REMARK  224  A    between atoms: _551  and  _553
REMARK  225  A    between atoms: _553  and  _554
REMARK  226  A    between atoms: _553  and  _556
REMARK  227  A    between atoms: _556  and  _557
REMARK  228  A    between atoms: _557  and  _558
REMARK  229  A    between atoms: _558  and  _559
REMARK                            x       y       z     vdW  Elec       q    Type
REMARK                         _______ _______ _______ _____ _____    ______ ____
ROOT
ATOM      1  CA  LEU A   1      -8.442   1.289  10.424  0.00  0.00    +0.133 C 
ENDROOT
BRANCH   1   2
ATOM      2  N   LEU A   1      -8.619   2.305  11.455  0.00  0.00    -0.239 NA
ATOM      3  H   LEU A   1      -7.846   2.534  12.112  0.00  0.00    +0.142 HD
ENDBRANCH   1   2
BRANCH   1   4
ATOM      4  C   LEU A   1      -8.796  -0.130  10.913  0.00  0.00    +0.224 C 
ATOM      5  O   LEU A   1      -8.353  -0.610  11.943  0.00  0.00    -0.287 OA
ENDBRANCH   1   4
BRANCH   1   6
ATOM      6  CB  LEU A   1      -6.980   1.347   9.954  0.00  0.00    +0.025 C 
BRANCH   6   7
ATOM      7  CG  LEU A   1      -6.483   2.738   9.548  0.00  0.00    +0.002 C 
ATOM      8  CD2 LEU A   1      -5.018   2.660   9.176  0.00  0.00    +0.000 C 
ATOM      9  CD1 LEU A   1      -7.271   3.301   8.368  0.00  0.00    +0.000 C 
ENDBRANCH   6   7
ENDBRANCH   1   6
TORSDOF 4
REMARK  Name = ../refined-set-2016/1hvj/1hvj_pocket.pdb
REMARK  229 active torsions:
REMARK  status: ('A' for Active; 'I' for Inactive)
REMARK    1  A    between atoms: _1  and  _3
REMARK    2  A    between atoms: _3  and  _4
REMARK    3  A    between atoms: _3  and  _6
REMARK    4  A    between atoms: _6  and  _7
REMARK    5  A    between atoms: _7  and  _8
REMARK    6  A    between atoms: _8  and  _9
REMARK    7  A    between atoms: _19  and  _20
REMARK    8  A    between atoms: _25  and  _27
REMARK    9  A    between atoms: _27  and  _28
REMARK   10  A    between atoms: _27  and  _30
REMARK   11  A    between atoms: _30  and  _31
REMARK   12  A    between atoms: _34  and  _36
REMARK   13  A    between atoms: _36  and  _37
REMARK   14  A    between atoms: _36  and  _39
REMARK   15  A    between atoms: _39  and  _40
REMARK   16  A    between atoms: _43  and  _45
REMARK   17  A    between atoms: _45  and  _46
REMARK   18  A    between atoms: _45  and  _48
REMARK   19  A    between atoms: _48  and  _49
REMARK   20  A    between atoms: _52  and  _54
REMARK   21  A    between atoms: _54  and  _55
REMARK   22  A    between atoms: _54  and  _57
REMARK   23  A    between atoms: _57  and  _58
REMARK   24  A    between atoms: _61  and  _63
REMARK   25  A    between atoms: _63  and  _64
REMARK   26  A    between atoms: _63  and  _66
REMARK   27  A    between atoms: _66  and  _67
REMARK   28  A    between atoms: _70  and  _72
REMARK   29  A    between atoms: _72  and  _73
REMARK   30  A    between atoms: _75  and  _77
REMARK   31  A    between atoms: _77  and  _78
REMARK   32  A    between atoms: _81  and  _83
REMARK   33  A    between atoms: _83  and  _84
REMARK   34  A    between atoms: _83  and  _86
REMARK   35  A    between atoms: _86  and  _87
REMARK   36  A    between atoms: _90  and  _92
REMARK   37  A    between atoms: _92  and  _93
REMARK   38  A    between atoms: _92  and  _95
REMARK   39  A    between atoms: _95  and  _96
REMARK   40  A    between atoms: _99  and  _101
REMARK   41  A    between atoms: _101  and  _102
REMARK   42  A    between atoms: _101  and  _104
REMARK   43  A    between atoms: _104  and  _105
REMARK   44  A    between atoms: _108  and  _110
REMARK   45  A    between atoms: _110  and  _111
REMARK   46  A    between atoms: _110  and  _113
REMARK   47  A    between atoms: _116  and  _118
REMARK   48  A    between atoms: _118  and  _119
REMARK   49  A    between atoms: _118  and  _121
REMARK   50  A    between atoms: _121  and  _122
REMARK   51  A    between atoms: _122  and  _123
REMARK   52  A    between atoms: _123  and  _124
REMARK   53  A    between atoms: _124  and  _125
REMARK   54  A    between atoms: _129  and  _131
REMARK   55  A    between atoms: _131  and  _132
REMARK   56  A    between atoms: _131  and  _134
REMARK   57  A    between atoms: _134  and  _135
REMARK   58  A    between atoms: _135  and  _136
REMARK   59  A    between atoms: _138  and  _140
REMARK   60  A    between atoms: _140  and  _141
REMARK   61  A    between atoms: _140  and  _143
REMARK   62  A    between atoms: _143  and  _144
REMARK   63  A    between atoms: _147  and  _149
REMARK   64  A    between atoms: _149  and  _150
REMARK   65  A    between atoms: _152  and  _154
REMARK   66  A    between atoms: _154  and  _155
REMARK   67  A    between atoms: _157  and  _159
REMARK   68  A    between atoms: _159  and  _160
REMARK   69  A    between atoms: _159  and  _162
REMARK   70  A    between atoms: _162  and  _163
REMARK   71  A    between atoms: _166  and  _168
REMARK   72  A    between atoms: _168  and  _169
REMARK   73  A    between atoms: _171  and  _173
REMARK   74  A    between atoms: _173  and  _174
REMARK   75  A    between atoms: _176  and  _178
REMARK   76  A    between atoms: _178  and  _179
REMARK   77  A    between atoms: _178  and  _181
REMARK   78  A    between atoms: _181  and  _182
REMARK   79  A    between atoms: _188  and  _190
REMARK   80  A    between atoms: _190  and  _191
REMARK   81  A    between atoms: _190  and  _193
REMARK   82  A    between atoms: _193  and  _194
REMARK   83  A    between atoms: _197  and  _199
REMARK   84  A    between atoms: _199  and  _200
REMARK   85  A    between atoms: _199  and  _202
REMARK   86  A    between atoms: _202  and  _203
REMARK   87  A    between atoms: _207  and  _208
REMARK   88  A    between atoms: _213  and  _215
REMARK   89  A    between atoms: _215  and  _216
REMARK   90  A    between atoms: _215  and  _218
REMARK   91  A    between atoms: _218  and  _219
REMARK   92  A    between atoms: _223  and  _224
REMARK   93  A    between atoms: _229  and  _231
REMARK   94  A    between atoms: _231  and  _232
REMARK   95  A    between atoms: _231  and  _234
REMARK   96  A    between atoms: _237  and  _239
REMARK   97  A    between atoms: _239  and  _240
REMARK   98  A    between atoms: _239  and  _242
REMARK   99  A    between atoms: _242  and  _243
REMARK  100  A    between atoms: _248  and  _250
REMARK  101  A    between atoms: _250  and  _251
REMARK  102  A    between atoms: _250  and  _253
REMARK  103  A    between atoms: _253  and  _254
REMARK  104  A    between atoms: _257  and  _259
REMARK  105  A    between atoms: _259  and  _260
REMARK  106  A    between atoms: _259  and  _262
REMARK  107  A    between atoms: _262  and  _263
REMARK  108  A    between atoms: _266  and  _268
REMARK  109  A    between atoms: _268  and  _269
REMARK  110  A    between atoms: _271  and  _273
REMARK  111  A    between atoms: _273  and  _274
REMARK  112  A    between atoms: _273  and  _276
REMARK  113  A    between atoms: _276  and  _277
REMARK  114  A    between atoms: _277  and  _278
REMARK  115  A    between atoms: _278  and  _279
REMARK  116  A    between atoms: _288  and  _290
REMARK  117  A    between atoms: _290  and  _291
REMARK  118  A    between atoms: _290  and  _293
REMARK  119  A    between atoms: _293  and  _294
REMARK  120  A    between atoms: _294  and  _295
REMARK  121  A    between atoms: _295  and  _296
REMARK  122  A    between atoms: _305  and  _307
REMARK  123  A    between atoms: _307  and  _308
REMARK  124  A    between atoms: _307  and  _310
REMARK  125  A    between atoms: _310  and  _311
REMARK  126  A    between atoms: _314  and  _316
REMARK  127  A    between atoms: _316  and  _317
REMARK  128  A    between atoms: _316  and  _319
REMARK  129  A    between atoms: _319  and  _320
REMARK  130  A    between atoms: _323  and  _325
REMARK  131  A    between atoms: _325  and  _326
REMARK  132  A    between atoms: _325  and  _328
REMARK  133  A    between atoms: _328  and  _329
REMARK  134  A    between atoms: _332  and  _334
REMARK  135  A    between atoms: _334  and  _335
REMARK  136  A    between atoms: _334  and  _337
REMARK  137  A    between atoms: _337  and  _338
REMARK  138  A    between atoms: _341  and  _343
REMARK  139  A    between atoms: _343  and  _344
REMARK  140  A    between atoms: _343  and  _346
REMARK  141  A    between atoms: _346  and  _347
REMARK  142  A    between atoms: _350  and  _352
REMARK  143  A    between atoms: _352  and  _353
REMARK  144  A    between atoms: _355  and  _357
REMARK  145  A    between atoms: _357  and  _358
REMARK  146  A    between atoms: _361  and  _363
REMARK  147  A    between atoms: _363  and  _364
REMARK  148  A    between atoms: _363  and  _366
REMARK  149  A    between atoms: _366  and  _367
REMARK  150  A    between atoms: _370  and  _372
REMARK  151  A    between atoms: _372  and  _373
REMARK  152  A    between atoms: _372  and  _375
REMARK  153  A    between atoms: _375  and  _376
REMARK  154  A    between atoms: _379  and  _381
REMARK  155  A    between atoms: _381  and  _382
REMARK  156  A    between atoms: _381  and  _384
REMARK  157  A    between atoms: _384  and  _385
REMARK  158  A    between atoms: _388  and  _390
REMARK  159  A    between atoms: _390  and  _391
REMARK  160  A    between atoms: _390  and  _393
REMARK  161  A    between atoms: _396  and  _398
REMARK  162  A    between atoms: _398  and  _399
REMARK  163  A    between atoms: _398  and  _401
REMARK  164  A    between atoms: _401  and  _402
REMARK  165  A    between atoms: _402  and  _403
REMARK  166  A    between atoms: _403  and  _404
REMARK  167  A    between atoms: _404  and  _405
REMARK  168  A    between atoms: _409  and  _411
REMARK  169  A    between atoms: _411  and  _412
REMARK  170  A    between atoms: _411  and  _414
REMARK  171  A    between atoms: _414  and  _415
REMARK  172  A    between atoms: _415  and  _416
REMARK  173  A    between atoms: _418  and  _420
REMARK  174  A    between atoms: _420  and  _421
REMARK  175  A    between atoms: _420  and  _423
REMARK  176  A    between atoms: _423  and  _424
REMARK  177  A    between atoms: _427  and  _429
REMARK  178  A    between atoms: _429  and  _430
REMARK  179  A    between atoms: _432  and  _434
REMARK  180  A    between atoms: _434  and  _435
REMARK  181  A    between atoms: _437  and  _439
REMARK  182  A    between atoms: _439  and  _440
REMARK  183  A    between atoms: _439  and  _442
REMARK  184  A    between atoms: _442  and  _443
REMARK  185  A    between atoms: _446  and  _448
REMARK  186  A    between atoms: _448  and  _449
REMARK  187  A    between atoms: _451  and  _453
REMARK  188  A    between atoms: _453  and  _454
REMARK  189  A    between atoms: _456  and  _458
REMARK  190  A    between atoms: _458  and  _459
REMARK  191  A    between atoms: _458  and  _461
REMARK  192  A    between atoms: _461  and  _462
REMARK  193  A    between atoms: _468  and  _470
REMARK  194  A    between atoms: _470  and  _471
REMARK  195  A    between atoms: _470  and  _473
REMARK  196  A    between atoms: _473  and  _474
REMARK  197  A    between atoms: _477  and  _479
REMARK  198  A    between atoms: _479  and  _480
REMARK  199  A    between atoms: _479  and  _482
REMARK  200  A    between atoms: _482  and  _483
REMARK  201  A    between atoms: _487  and  _488
REMARK  202  A    between atoms: _493  and  _495
REMARK  203  A    between atoms: _495  and  _496
REMARK  204  A    between atoms: _495  and  _498
REMARK  205  A    between atoms: _498  and  _499
REMARK  206  A    between atoms: _503  and  _504
REMARK  207  A    between atoms: _509  and  _511
REMARK  208  A    between atoms: _511  and  _512
REMARK  209  A    between atoms: _511  and  _514
REMARK  210  A    between atoms: _517  and  _519
REMARK  211  A    between atoms: _519  and  _520
REMARK  212  A    between atoms: _519  and  _522
REMARK  213  A    between atoms: _522  and  _523
REMARK  214  A    between atoms: _528  and  _530
REMARK  215  A    between atoms: _530  and  _531
REMARK  216  A    between atoms: _530  and  _533
REMARK  217  A    between atoms: _533  and  _534
REMARK  218  A    between atoms: _537  and  _539
REMARK  219  A    between atoms: _539  and  _540
REMARK  220  A    between atoms: _539  and  _542
REMARK  221  A    between atoms: _542  and  _543
REMARK  222  A    between atoms: _546  and  _548
REMARK  223  A    between atoms: _548  and  _549
REMARK  224  A    between atoms: _551  and  _553
REMARK  225  A    between atoms: _553  and  _554
REMARK  226  A    between atoms: _553  and  _556
REMARK  227  A    between atoms: _556  and  _557
REMARK  228  A    between atoms: _557  and  _558
REMARK  229  A    between atoms: _558  and  _559
REMARK                            x       y       z     vdW  Elec       q    Type
REMARK                         _______ _______ _______ _____ _____    ______ ____
ROOT
ATOM      1  C   ASN A   5      -4.142  -3.013  18.603  0.00  0.00    +0.241 C 
ATOM      2  O   ASN A   5      -3.602  -2.984  19.700  0.00  0.00    -0.273 OA
ATOM      3  N   ILE A   6      -3.961  -2.088  17.665  0.00  0.00    -0.297 N 
ATOM      4  H   ILE A   6      -4.501  -2.159  16.779  0.00  0.00    +0.150 HD
ENDROOT
BRANCH   3   5
ATOM      5  CA  ILE A   6      -3.023  -0.967  17.837  0.00  0.00    +0.149 C 
BRANCH   5   6
ATOM      6  C   ILE A   6      -3.731   0.373  17.999  0.00  0.00    +0.241 C 
ATOM      7  N   ILE A   7      -3.449   1.054  19.122  0.00  0.00    -0.297 N 
ATOM      8  H   ILE A   7      -2.935   0.586  19.896  0.00  0.00    +0.150 HD
ATOM      9  O   ILE A   6      -4.474   0.778  17.116  0.00  0.00    -0.273 OA
BRANCH   7  10
ATOM     10  CA  ILE A   7      -3.861   2.452  19.263  0.00  0.00    +0.149 C 
BRANCH  10  11
ATOM     11  C   ILE A   7      -2.716   3.385  18.932  0.00  0.00    +0.241 C 
ATOM     12  O   ILE A   7      -1.692   3.457  19.600  0.00  0.00    -0.273 OA
ATOM     13  N   GLY A   8      -2.890   4.096  17.844  0.00  0.00    -0.295 N 
ATOM     14  H   GLY A   8      -3.776   4.060  17.301  0.00  0.00    +0.150 HD
BRANCH  13  15
ATOM     15  CA  GLY A   8      -1.767   4.944  17.435  0.00  0.00    +0.176 C 
BRANCH  15  16
ATOM     16  C   GLY A   8      -1.839   6.389  17.865  0.00  0.00    +0.243 C 
ATOM     17  O   GLY A   8      -2.772   6.836  18.532  0.00  0.00    -0.273 OA
ATOM     18  N   ARG A   9      -0.824   7.134  17.400  0.00  0.00    -0.298 N 
ATOM     19  H   ARG A   9      -0.081   6.681  16.831  0.00  0.00    +0.150 HD
BRANCH  18  20
ATOM     20  CA  ARG A   9      -0.737   8.587  17.678  0.00  0.00    +0.137 C 
BRANCH  20  21
ATOM     21  C   ARG A   9      -1.901   9.500  17.316  0.00  0.00    +0.227 C 
ATOM     22  O   ARG A   9      -2.160  10.479  17.995  0.00  0.00    -0.286 OA
ENDBRANCH  20  21
BRANCH  20  23
ATOM     23  CB  ARG A   9       0.518   9.217  17.063  0.00  0.00    +0.031 C 
BRANCH  23  24
ATOM     24  CG  ARG A   9       1.818   8.833  17.762  0.00  0.00    +0.045 C 
BRANCH  24  25
ATOM     25  CD  ARG A   9       3.026   9.674  17.344  0.00  0.00    +0.174 C 
BRANCH  25  26
ATOM     26  NE  ARG A   9       3.220   9.633  15.895  0.00  0.00    -0.265 N 
ATOM     27  HE  ARG A   9       3.733   8.837  15.464  0.00  0.00    +0.259 HD
ATOM     28  CZ  ARG A   9       2.744  10.608  15.126  0.00  0.00    +0.342 C 
ATOM     29  NH2 ARG A   9       2.222  11.717  15.666  0.00  0.00    -0.292 N 
ATOM     30 HH21 ARG A   9       2.185  11.824  16.700  0.00  0.00    +0.255 HD
ATOM     31 HH22 ARG A   9       1.854  12.471  15.052  0.00  0.00    +0.255 HD
ATOM     32  NH1 ARG A   9       2.752  10.452  13.808  0.00  0.00    -0.292 N 
ATOM     33 HH11 ARG A   9       3.127   9.577  13.390  0.00  0.00    +0.255 HD
ATOM     34 HH12 ARG A   9       2.383  11.205  13.193  0.00  0.00    +0.255 HD
ENDBRANCH  25  26
ENDBRANCH  24  25
ENDBRANCH  23  24
ENDBRANCH  20  23
ENDBRANCH  18  20
ENDBRANCH  15  16
ENDBRANCH  13  15
ENDBRANCH  10  11
BRANCH  10  35
ATOM     35  CB  ILE A   7      -4.347   2.707  20.704  0.00  0.00    +0.027 C 
ATOM     36  CG2 ILE A   7      -4.759   4.152  20.973  0.00  0.00    +0.002 C 
BRANCH  35  37
ATOM     37  CG1 ILE A   7      -5.498   1.809  21.143  0.00  0.00    +0.002 C 
ATOM     38  CD1 ILE A   7      -6.826   2.071  20.425  0.00  0.00    +0.000 C 
ENDBRANCH  35  37
ENDBRANCH  10  35
ENDBRANCH   7  10
ENDBRANCH   5   6
BRANCH   5  39
ATOM     39  CB  ILE A   6      -2.129  -0.830  16.581  0.00  0.00    +0.027 C 
ATOM     40  CG2 ILE A   6      -1.204   0.395  16.655  0.00  0.00    +0.002 C 
BRANCH  39  41
ATOM     41  CG1 ILE A   6      -1.271  -2.041  16.230  0.00  0.00    +0.002 C 
ATOM     42  CD1 ILE A   6      -0.360  -2.337  17.410  0.00  0.00    +0.000 C 
ENDBRANCH  39  41
ENDBRANCH   5  39
ENDBRANCH   3   5
BRANCH   1  43
ATOM     43  CA  ASN A   5      -5.081  -4.144  18.220  0.00  0.00    +0.158 C 
BRANCH  43  45
ATOM     44  C   VAL A   4      -3.491  -5.723  17.414  0.00  0.00    +0.241 C 
ATOM     45  N   ASN A   5      -4.459  -5.478  18.293  0.00  0.00    -0.297 N 
ATOM     46  H   ASN A   5      -4.760  -6.187  18.992  0.00  0.00    +0.150 HD
ATOM     47  O   VAL A   4      -3.246  -4.962  16.493  0.00  0.00    -0.273 OA
BRANCH  44  48
ATOM     48  CA  VAL A   4      -2.692  -7.016  17.583  0.00  0.00    +0.149 C 
BRANCH  48  51
ATOM     49  C   PRO A   3      -2.142  -8.897  16.068  0.00  0.00    +0.241 C 
ATOM     50  O   PRO A   3      -2.477  -9.709  16.917  0.00  0.00    -0.273 OA
ATOM     51  N   VAL A   4      -2.220  -7.579  16.284  0.00  0.00    -0.297 N 
ATOM     52  H   VAL A   4      -1.943  -6.926  15.523  0.00  0.00    +0.150 HD
BRANCH  49  56
ATOM     53  C   THR A   2      -3.149  -8.070  13.308  0.00  0.00    +0.246 C 
ATOM     54  O   THR A   2      -4.082  -8.554  13.930  0.00  0.00    -0.273 OA
ATOM     55  N   PRO A   3      -1.882  -8.414  13.562  0.00  0.00    -0.272 N 
ATOM     56  CA  PRO A   3      -1.577  -9.311  14.695  0.00  0.00    +0.152 C 
ATOM     57  CB  PRO A   3      -0.058  -9.255  14.729  0.00  0.00    +0.031 C 
ATOM     58  CG  PRO A   3       0.412  -8.869  13.327  0.00  0.00    +0.024 C 
ATOM     59  CD  PRO A   3      -0.697  -7.981  12.811  0.00  0.00    +0.094 C 
BRANCH  53  60
ATOM     60  CA  THR A   2      -3.362  -7.016  12.225  0.00  0.00    +0.176 C 
BRANCH  60  62
ATOM     61  C   PRO A   1      -4.370  -8.016  10.216  0.00  0.00    +0.239 C 
ATOM     62  N   THR A   2      -4.500  -7.299  11.333  0.00  0.00    -0.295 N 
ATOM     63  H   THR A   2      -5.438  -6.926  11.583  0.00  0.00    +0.150 HD
ATOM     64  O   PRO A   1      -3.292  -8.453   9.836  0.00  0.00    -0.274 OA
BRANCH  61  66
ATOM     65  N   PRO A   1      -6.424  -7.054   8.948  0.00  0.00    -0.210 NA
ATOM     66  CA  PRO A   1      -5.708  -8.246   9.474  0.00  0.00    +0.149 C 
ATOM     67  CB  PRO A   1      -5.561  -9.099   8.206  0.00  0.00    +0.028 C 
ATOM     68  CG  PRO A   1      -5.473  -8.095   7.060  0.00  0.00    +0.021 C 
ATOM     69  CD  PRO A   1      -6.378  -6.932   7.496  0.00  0.00    +0.089 C 
ENDBRANCH  61  66
ENDBRANCH  60  62
BRANCH  60  70
ATOM     70  CB  THR A   2      -3.544  -5.608  12.885  0.00  0.00    +0.137 C 
ATOM     71  CG2 THR A   2      -4.893  -5.411  13.589  0.00  0.00    +0.034 C 
BRANCH  70  72
ATOM     72  OG1 THR A   2      -2.464  -5.330  13.802  0.00  0.00    -0.382 OA
ATOM     73  HG1 THR A   2      -2.452  -6.018  14.514  0.00  0.00    +0.210 HD
ENDBRANCH  70  72
ENDBRANCH  60  70
ENDBRANCH  53  60
ENDBRANCH  49  56
ENDBRANCH  48  51
BRANCH  48  74
ATOM     74  CB  VAL A   4      -1.474  -6.787  18.528  0.00  0.00    +0.027 C 
ATOM     75  CG2 VAL A   4      -1.855  -6.269  19.910  0.00  0.00    +0.002 C 
ATOM     76  CG1 VAL A   4      -0.435  -5.849  17.947  0.00  0.00    +0.002 C 
ENDBRANCH  48  74
ENDBRANCH  44  48
ENDBRANCH  43  45
BRANCH  43  77
ATOM     77  CB  ASN A   5      -6.302  -4.046  19.143  0.00  0.00    +0.114 C 
BRANCH  77  78
ATOM     78  CG  ASN A   5      -7.388  -4.986  18.703  0.00  0.00    +0.222 C 
ATOM     79  ND2 ASN A   5      -8.021  -5.622  19.640  0.00  0.00    -0.329 N 
ATOM     80 HD21 ASN A   5      -7.753  -5.483  20.635  0.00  0.00    +0.145 HD
ATOM     81 HD22 ASN A   5      -8.796  -6.271  19.396  0.00  0.00    +0.145 HD
ATOM     82  OD1 ASN A   5      -7.701  -5.150  17.551  0.00  0.00    -0.275 OA
ENDBRANCH  77  78
ENDBRANCH  43  77
ENDBRANCH   1  43
TORSDOF 29
REMARK  Name = ../refined-set-2016/1hvj/1hvj_pocket.pdb
REMARK  229 active torsions:
REMARK  status: ('A' for Active; 'I' for Inactive)
REMARK    1  A    between atoms: _1  and  _3
REMARK    2  A    between atoms: _3  and  _4
REMARK    3  A    between atoms: _3  and  _6
REMARK    4  A    between atoms: _6  and  _7
REMARK    5  A    between atoms: _7  and  _8
REMARK    6  A    between atoms: _8  and  _9
REMARK    7  A    between atoms: _19  and  _20
REMARK    8  A    between atoms: _25  and  _27
REMARK    9  A    between atoms: _27  and  _28
REMARK   10  A    between atoms: _27  and  _30
REMARK   11  A    between atoms: _30  and  _31
REMARK   12  A    between atoms: _34  and  _36
REMARK   13  A    between atoms: _36  and  _37
REMARK   14  A    between atoms: _36  and  _39
REMARK   15  A    between atoms: _39  and  _40
REMARK   16  A    between atoms: _43  and  _45
REMARK   17  A    between atoms: _45  and  _46
REMARK   18  A    between atoms: _45  and  _48
REMARK   19  A    between atoms: _48  and  _49
REMARK   20  A    between atoms: _52  and  _54
REMARK   21  A    between atoms: _54  and  _55
REMARK   22  A    between atoms: _54  and  _57
REMARK   23  A    between atoms: _57  and  _58
REMARK   24  A    between atoms: _61  and  _63
REMARK   25  A    between atoms: _63  and  _64
REMARK   26  A    between atoms: _63  and  _66
REMARK   27  A    between atoms: _66  and  _67
REMARK   28  A    between atoms: _70  and  _72
REMARK   29  A    between atoms: _72  and  _73
REMARK   30  A    between atoms: _75  and  _77
REMARK   31  A    between atoms: _77  and  _78
REMARK   32  A    between atoms: _81  and  _83
REMARK   33  A    between atoms: _83  and  _84
REMARK   34  A    between atoms: _83  and  _86
REMARK   35  A    between atoms: _86  and  _87
REMARK   36  A    between atoms: _90  and  _92
REMARK   37  A    between atoms: _92  and  _93
REMARK   38  A    between atoms: _92  and  _95
REMARK   39  A    between atoms: _95  and  _96
REMARK   40  A    between atoms: _99  and  _101
REMARK   41  A    between atoms: _101  and  _102
REMARK   42  A    between atoms: _101  and  _104
REMARK   43  A    between atoms: _104  and  _105
REMARK   44  A    between atoms: _108  and  _110
REMARK   45  A    between atoms: _110  and  _111
REMARK   46  A    between atoms: _110  and  _113
REMARK   47  A    between atoms: _116  and  _118
REMARK   48  A    between atoms: _118  and  _119
REMARK   49  A    between atoms: _118  and  _121
REMARK   50  A    between atoms: _121  and  _122
REMARK   51  A    between atoms: _122  and  _123
REMARK   52  A    between atoms: _123  and  _124
REMARK   53  A    between atoms: _124  and  _125
REMARK   54  A    between atoms: _129  and  _131
REMARK   55  A    between atoms: _131  and  _132
REMARK   56  A    between atoms: _131  and  _134
REMARK   57  A    between atoms: _134  and  _135
REMARK   58  A    between atoms: _135  and  _136
REMARK   59  A    between atoms: _138  and  _140
REMARK   60  A    between atoms: _140  and  _141
REMARK   61  A    between atoms: _140  and  _143
REMARK   62  A    between atoms: _143  and  _144
REMARK   63  A    between atoms: _147  and  _149
REMARK   64  A    between atoms: _149  and  _150
REMARK   65  A    between atoms: _152  and  _154
REMARK   66  A    between atoms: _154  and  _155
REMARK   67  A    between atoms: _157  and  _159
REMARK   68  A    between atoms: _159  and  _160
REMARK   69  A    between atoms: _159  and  _162
REMARK   70  A    between atoms: _162  and  _163
REMARK   71  A    between atoms: _166  and  _168
REMARK   72  A    between atoms: _168  and  _169
REMARK   73  A    between atoms: _171  and  _173
REMARK   74  A    between atoms: _173  and  _174
REMARK   75  A    between atoms: _176  and  _178
REMARK   76  A    between atoms: _178  and  _179
REMARK   77  A    between atoms: _178  and  _181
REMARK   78  A    between atoms: _181  and  _182
REMARK   79  A    between atoms: _188  and  _190
REMARK   80  A    between atoms: _190  and  _191
REMARK   81  A    between atoms: _190  and  _193
REMARK   82  A    between atoms: _193  and  _194
REMARK   83  A    between atoms: _197  and  _199
REMARK   84  A    between atoms: _199  and  _200
REMARK   85  A    between atoms: _199  and  _202
REMARK   86  A    between atoms: _202  and  _203
REMARK   87  A    between atoms: _207  and  _208
REMARK   88  A    between atoms: _213  and  _215
REMARK   89  A    between atoms: _215  and  _216
REMARK   90  A    between atoms: _215  and  _218
REMARK   91  A    between atoms: _218  and  _219
REMARK   92  A    between atoms: _223  and  _224
REMARK   93  A    between atoms: _229  and  _231
REMARK   94  A    between atoms: _231  and  _232
REMARK   95  A    between atoms: _231  and  _234
REMARK   96  A    between atoms: _237  and  _239
REMARK   97  A    between atoms: _239  and  _240
REMARK   98  A    between atoms: _239  and  _242
REMARK   99  A    between atoms: _242  and  _243
REMARK  100  A    between atoms: _248  and  _250
REMARK  101  A    between atoms: _250  and  _251
REMARK  102  A    between atoms: _250  and  _253
REMARK  103  A    between atoms: _253  and  _254
REMARK  104  A    between atoms: _257  and  _259
REMARK  105  A    between atoms: _259  and  _260
REMARK  106  A    between atoms: _259  and  _262
REMARK  107  A    between atoms: _262  and  _263
REMARK  108  A    between atoms: _266  and  _268
REMARK  109  A    between atoms: _268  and  _269
REMARK  110  A    between atoms: _271  and  _273
REMARK  111  A    between atoms: _273  and  _274
REMARK  112  A    between atoms: _273  and  _276
REMARK  113  A    between atoms: _276  and  _277
REMARK  114  A    between atoms: _277  and  _278
REMARK  115  A    between atoms: _278  and  _279
REMARK  116  A    between atoms: _288  and  _290
REMARK  117  A    between atoms: _290  and  _291
REMARK  118  A    between atoms: _290  and  _293
REMARK  119  A    between atoms: _293  and  _294
REMARK  120  A    between atoms: _294  and  _295
REMARK  121  A    between atoms: _295  and  _296
REMARK  122  A    between atoms: _305  and  _307
REMARK  123  A    between atoms: _307  and  _308
REMARK  124  A    between atoms: _307  and  _310
REMARK  125  A    between atoms: _310  and  _311
REMARK  126  A    between atoms: _314  and  _316
REMARK  127  A    between atoms: _316  and  _317
REMARK  128  A    between atoms: _316  and  _319
REMARK  129  A    between atoms: _319  and  _320
REMARK  130  A    between atoms: _323  and  _325
REMARK  131  A    between atoms: _325  and  _326
REMARK  132  A    between atoms: _325  and  _328
REMARK  133  A    between atoms: _328  and  _329
REMARK  134  A    between atoms: _332  and  _334
REMARK  135  A    between atoms: _334  and  _335
REMARK  136  A    between atoms: _334  and  _337
REMARK  137  A    between atoms: _337  and  _338
REMARK  138  A    between atoms: _341  and  _343
REMARK  139  A    between atoms: _343  and  _344
REMARK  140  A    between atoms: _343  and  _346
REMARK  141  A    between atoms: _346  and  _347
REMARK  142  A    between atoms: _350  and  _352
REMARK  143  A    between atoms: _352  and  _353
REMARK  144  A    between atoms: _355  and  _357
REMARK  145  A    between atoms: _357  and  _358
REMARK  146  A    between atoms: _361  and  _363
REMARK  147  A    between atoms: _363  and  _364
REMARK  148  A    between atoms: _363  and  _366
REMARK  149  A    between atoms: _366  and  _367
REMARK  150  A    between atoms: _370  and  _372
REMARK  151  A    between atoms: _372  and  _373
REMARK  152  A    between atoms: _372  and  _375
REMARK  153  A    between atoms: _375  and  _376
REMARK  154  A    between atoms: _379  and  _381
REMARK  155  A    between atoms: _381  and  _382
REMARK  156  A    between atoms: _381  and  _384
REMARK  157  A    between atoms: _384  and  _385
REMARK  158  A    between atoms: _388  and  _390
REMARK  159  A    between atoms: _390  and  _391
REMARK  160  A    between atoms: _390  and  _393
REMARK  161  A    between atoms: _396  and  _398
REMARK  162  A    between atoms: _398  and  _399
REMARK  163  A    between atoms: _398  and  _401
REMARK  164  A    between atoms: _401  and  _402
REMARK  165  A    between atoms: _402  and  _403
REMARK  166  A    between atoms: _403  and  _404
REMARK  167  A    between atoms: _404  and  _405
REMARK  168  A    between atoms: _409  and  _411
REMARK  169  A    between atoms: _411  and  _412
REMARK  170  A    between atoms: _411  and  _414
REMARK  171  A    between atoms: _414  and  _415
REMARK  172  A    between atoms: _415  and  _416
REMARK  173  A    between atoms: _418  and  _420
REMARK  174  A    between atoms: _420  and  _421
REMARK  175  A    between atoms: _420  and  _423
REMARK  176  A    between atoms: _423  and  _424
REMARK  177  A    between atoms: _427  and  _429
REMARK  178  A    between atoms: _429  and  _430
REMARK  179  A    between atoms: _432  and  _434
REMARK  180  A    between atoms: _434  and  _435
REMARK  181  A    between atoms: _437  and  _439
REMARK  182  A    between atoms: _439  and  _440
REMARK  183  A    between atoms: _439  and  _442
REMARK  184  A    between atoms: _442  and  _443
REMARK  185  A    between atoms: _446  and  _448
REMARK  186  A    between atoms: _448  and  _449
REMARK  187  A    between atoms: _451  and  _453
REMARK  188  A    between atoms: _453  and  _454
REMARK  189  A    between atoms: _456  and  _458
REMARK  190  A    between atoms: _458  and  _459
REMARK  191  A    between atoms: _458  and  _461
REMARK  192  A    between atoms: _461  and  _462
REMARK  193  A    between atoms: _468  and  _470
REMARK  194  A    between atoms: _470  and  _471
REMARK  195  A    between atoms: _470  and  _473
REMARK  196  A    between atoms: _473  and  _474
REMARK  197  A    between atoms: _477  and  _479
REMARK  198  A    between atoms: _479  and  _480
REMARK  199  A    between atoms: _479  and  _482
REMARK  200  A    between atoms: _482  and  _483
REMARK  201  A    between atoms: _487  and  _488
REMARK  202  A    between atoms: _493  and  _495
REMARK  203  A    between atoms: _495  and  _496
REMARK  204  A    between atoms: _495  and  _498
REMARK  205  A    between atoms: _498  and  _499
REMARK  206  A    between atoms: _503  and  _504
REMARK  207  A    between atoms: _509  and  _511
REMARK  208  A    between atoms: _511  and  _512
REMARK  209  A    between atoms: _511  and  _514
REMARK  210  A    between atoms: _517  and  _519
REMARK  211  A    between atoms: _519  and  _520
REMARK  212  A    between atoms: _519  and  _522
REMARK  213  A    between atoms: _522  and  _523
REMARK  214  A    between atoms: _528  and  _530
REMARK  215  A    between atoms: _530  and  _531
REMARK  216  A    between atoms: _530  and  _533
REMARK  217  A    between atoms: _533  and  _534
REMARK  218  A    between atoms: _537  and  _539
REMARK  219  A    between atoms: _539  and  _540
REMARK  220  A    between atoms: _539  and  _542
REMARK  221  A    between atoms: _542  and  _543
REMARK  222  A    between atoms: _546  and  _548
REMARK  223  A    between atoms: _548  and  _549
REMARK  224  A    between atoms: _551  and  _553
REMARK  225  A    between atoms: _553  and  _554
REMARK  226  A    between atoms: _553  and  _556
REMARK  227  A    between atoms: _556  and  _557
REMARK  228  A    between atoms: _557  and  _558
REMARK  229  A    between atoms: _558  and  _559
REMARK                            x       y       z     vdW  Elec       q    Type
REMARK                         _______ _______ _______ _____ _____    ______ ____
ROOT
ATOM      1  NE  ARG A   1       5.972   8.918  11.192  0.00  0.00    -0.265 N 
ATOM      2  HE  ARG A   1       5.038   8.558  11.475  0.00  0.00    +0.259 HD
ATOM      3  CZ  ARG A   1       6.227   9.127   9.904  0.00  0.00    +0.342 C 
ATOM      4  NH2 ARG A   1       7.438   9.573   9.537  0.00  0.00    -0.292 N 
ATOM      5 HH21 ARG A   1       8.167   9.752  10.257  0.00  0.00    +0.255 HD
ATOM      6 HH22 ARG A   1       7.648   9.740   8.532  0.00  0.00    +0.255 HD
ATOM      7  NH1 ARG A   1       5.253   8.874   9.021  0.00  0.00    -0.292 N 
ATOM      8 HH11 ARG A   1       4.330   8.525   9.350  0.00  0.00    +0.255 HD
ATOM      9 HH12 ARG A   1       5.419   9.027   8.006  0.00  0.00    +0.255 HD
ENDROOT
BRANCH   1  10
ATOM     10  CD  ARG A   1       6.975   9.183  12.216  0.00  0.00    +0.174 C 
BRANCH  10  11
ATOM     11  CG  ARG A   1       6.365  10.040  13.326  0.00  0.00    +0.045 C 
BRANCH  11  12
ATOM     12  CB  ARG A   1       7.334  10.336  14.470  0.00  0.00    +0.029 C 
BRANCH  12  13
ATOM     13  CA  ARG A   1       6.672  11.065  15.650  0.00  0.00    +0.133 C 
BRANCH  13  14
ATOM     14  N   ARG A   1       6.033  12.318  15.192  0.00  0.00    -0.239 NA
ATOM     15  H   ARG A   1       6.088  12.637  14.204  0.00  0.00    +0.142 HD
ENDBRANCH  13  14
BRANCH  13  16
ATOM     16  C   ARG A   1       7.747  11.297  16.712  0.00  0.00    +0.224 C 
ATOM     17  O   ARG A   1       8.561  12.177  16.525  0.00  0.00    -0.287 OA
ENDBRANCH  13  16
ENDBRANCH  12  13
ENDBRANCH  11  12
ENDBRANCH  10  11
ENDBRANCH   1  10
TORSDOF 6
REMARK  Name = ../refined-set-2016/1hvj/1hvj_pocket.pdb
REMARK  229 active torsions:
REMARK  status: ('A' for Active; 'I' for Inactive)
REMARK    1  A    between atoms: _1  and  _3
REMARK    2  A    between atoms: _3  and  _4
REMARK    3  A    between atoms: _3  and  _6
REMARK    4  A    between atoms: _6  and  _7
REMARK    5  A    between atoms: _7  and  _8
REMARK    6  A    between atoms: _8  and  _9
REMARK    7  A    between atoms: _19  and  _20
REMARK    8  A    between atoms: _25  and  _27
REMARK    9  A    between atoms: _27  and  _28
REMARK   10  A    between atoms: _27  and  _30
REMARK   11  A    between atoms: _30  and  _31
REMARK   12  A    between atoms: _34  and  _36
REMARK   13  A    between atoms: _36  and  _37
REMARK   14  A    between atoms: _36  and  _39
REMARK   15  A    between atoms: _39  and  _40
REMARK   16  A    between atoms: _43  and  _45
REMARK   17  A    between atoms: _45  and  _46
REMARK   18  A    between atoms: _45  and  _48
REMARK   19  A    between atoms: _48  and  _49
REMARK   20  A    between atoms: _52  and  _54
REMARK   21  A    between atoms: _54  and  _55
REMARK   22  A    between atoms: _54  and  _57
REMARK   23  A    between atoms: _57  and  _58
REMARK   24  A    between atoms: _61  and  _63
REMARK   25  A    between atoms: _63  and  _64
REMARK   26  A    between atoms: _63  and  _66
REMARK   27  A    between atoms: _66  and  _67
REMARK   28  A    between atoms: _70  and  _72
REMARK   29  A    between atoms: _72  and  _73
REMARK   30  A    between atoms: _75  and  _77
REMARK   31  A    between atoms: _77  and  _78
REMARK   32  A    between atoms: _81  and  _83
REMARK   33  A    between atoms: _83  and  _84
REMARK   34  A    between atoms: _83  and  _86
REMARK   35  A    between atoms: _86  and  _87
REMARK   36  A    between atoms: _90  and  _92
REMARK   37  A    between atoms: _92  and  _93
REMARK   38  A    between atoms: _92  and  _95
REMARK   39  A    between atoms: _95  and  _96
REMARK   40  A    between atoms: _99  and  _101
REMARK   41  A    between atoms: _101  and  _102
REMARK   42  A    between atoms: _101  and  _104
REMARK   43  A    between atoms: _104  and  _105
REMARK   44  A    between atoms: _108  and  _110
REMARK   45  A    between atoms: _110  and  _111
REMARK   46  A    between atoms: _110  and  _113
REMARK   47  A    between atoms: _116  and  _118
REMARK   48  A    between atoms: _118  and  _119
REMARK   49  A    between atoms: _118  and  _121
REMARK   50  A    between atoms: _121  and  _122
REMARK   51  A    between atoms: _122  and  _123
REMARK   52  A    between atoms: _123  and  _124
REMARK   53  A    between atoms: _124  and  _125
REMARK   54  A    between atoms: _129  and  _131
REMARK   55  A    between atoms: _131  and  _132
REMARK   56  A    between atoms: _131  and  _134
REMARK   57  A    between atoms: _134  and  _135
REMARK   58  A    between atoms: _135  and  _136
REMARK   59  A    between atoms: _138  and  _140
REMARK   60  A    between atoms: _140  and  _141
REMARK   61  A    between atoms: _140  and  _143
REMARK   62  A    between atoms: _143  and  _144
REMARK   63  A    between atoms: _147  and  _149
REMARK   64  A    between atoms: _149  and  _150
REMARK   65  A    between atoms: _152  and  _154
REMARK   66  A    between atoms: _154  and  _155
REMARK   67  A    between atoms: _157  and  _159
REMARK   68  A    between atoms: _159  and  _160
REMARK   69  A    between atoms: _159  and  _162
REMARK   70  A    between atoms: _162  and  _163
REMARK   71  A    between atoms: _166  and  _168
REMARK   72  A    between atoms: _168  and  _169
REMARK   73  A    between atoms: _171  and  _173
REMARK   74  A    between atoms: _173  and  _174
REMARK   75  A    between atoms: _176  and  _178
REMARK   76  A    between atoms: _178  and  _179
REMARK   77  A    between atoms: _178  and  _181
REMARK   78  A    between atoms: _181  and  _182
REMARK   79  A    between atoms: _188  and  _190
REMARK   80  A    between atoms: _190  and  _191
REMARK   81  A    between atoms: _190  and  _193
REMARK   82  A    between atoms: _193  and  _194
REMARK   83  A    between atoms: _197  and  _199
REMARK   84  A    between atoms: _199  and  _200
REMARK   85  A    between atoms: _199  and  _202
REMARK   86  A    between atoms: _202  and  _203
REMARK   87  A    between atoms: _207  and  _208
REMARK   88  A    between atoms: _213  and  _215
REMARK   89  A    between atoms: _215  and  _216
REMARK   90  A    between atoms: _215  and  _218
REMARK   91  A    between atoms: _218  and  _219
REMARK   92  A    between atoms: _223  and  _224
REMARK   93  A    between atoms: _229  and  _231
REMARK   94  A    between atoms: _231  and  _232
REMARK   95  A    between atoms: _231  and  _234
REMARK   96  A    between atoms: _237  and  _239
REMARK   97  A    between atoms: _239  and  _240
REMARK   98  A    between atoms: _239  and  _242
REMARK   99  A    between atoms: _242  and  _243
REMARK  100  A    between atoms: _248  and  _250
REMARK  101  A    between atoms: _250  and  _251
REMARK  102  A    between atoms: _250  and  _253
REMARK  103  A    between atoms: _253  and  _254
REMARK  104  A    between atoms: _257  and  _259
REMARK  105  A    between atoms: _259  and  _260
REMARK  106  A    between atoms: _259  and  _262
REMARK  107  A    between atoms: _262  and  _263
REMARK  108  A    between atoms: _266  and  _268
REMARK  109  A    between atoms: _268  and  _269
REMARK  110  A    between atoms: _271  and  _273
REMARK  111  A    between atoms: _273  and  _274
REMARK  112  A    between atoms: _273  and  _276
REMARK  113  A    between atoms: _276  and  _277
REMARK  114  A    between atoms: _277  and  _278
REMARK  115  A    between atoms: _278  and  _279
REMARK  116  A    between atoms: _288  and  _290
REMARK  117  A    between atoms: _290  and  _291
REMARK  118  A    between atoms: _290  and  _293
REMARK  119  A    between atoms: _293  and  _294
REMARK  120  A    between atoms: _294  and  _295
REMARK  121  A    between atoms: _295  and  _296
REMARK  122  A    between atoms: _305  and  _307
REMARK  123  A    between atoms: _307  and  _308
REMARK  124  A    between atoms: _307  and  _310
REMARK  125  A    between atoms: _310  and  _311
REMARK  126  A    between atoms: _314  and  _316
REMARK  127  A    between atoms: _316  and  _317
REMARK  128  A    between atoms: _316  and  _319
REMARK  129  A    between atoms: _319  and  _320
REMARK  130  A    between atoms: _323  and  _325
REMARK  131  A    between atoms: _325  and  _326
REMARK  132  A    between atoms: _325  and  _328
REMARK  133  A    between atoms: _328  and  _329
REMARK  134  A    between atoms: _332  and  _334
REMARK  135  A    between atoms: _334  and  _335
REMARK  136  A    between atoms: _334  and  _337
REMARK  137  A    between atoms: _337  and  _338
REMARK  138  A    between atoms: _341  and  _343
REMARK  139  A    between atoms: _343  and  _344
REMARK  140  A    between atoms: _343  and  _346
REMARK  141  A    between atoms: _346  and  _347
REMARK  142  A    between atoms: _350  and  _352
REMARK  143  A    between atoms: _352  and  _353
REMARK  144  A    between atoms: _355  and  _357
REMARK  145  A    between atoms: _357  and  _358
REMARK  146  A    between atoms: _361  and  _363
REMARK  147  A    between atoms: _363  and  _364
REMARK  148  A    between atoms: _363  and  _366
REMARK  149  A    between atoms: _366  and  _367
REMARK  150  A    between atoms: _370  and  _372
REMARK  151  A    between atoms: _372  and  _373
REMARK  152  A    between atoms: _372  and  _375
REMARK  153  A    between atoms: _375  and  _376
REMARK  154  A    between atoms: _379  and  _381
REMARK  155  A    between atoms: _381  and  _382
REMARK  156  A    between atoms: _381  and  _384
REMARK  157  A    between atoms: _384  and  _385
REMARK  158  A    between atoms: _388  and  _390
REMARK  159  A    between atoms: _390  and  _391
REMARK  160  A    between atoms: _390  and  _393
REMARK  161  A    between atoms: _396  and  _398
REMARK  162  A    between atoms: _398  and  _399
REMARK  163  A    between atoms: _398  and  _401
REMARK  164  A    between atoms: _401  and  _402
REMARK  165  A    between atoms: _402  and  _403
REMARK  166  A    between atoms: _403  and  _404
REMARK  167  A    between atoms: _404  and  _405
REMARK  168  A    between atoms: _409  and  _411
REMARK  169  A    between atoms: _411  and  _412
REMARK  170  A    between atoms: _411  and  _414
REMARK  171  A    between atoms: _414  and  _415
REMARK  172  A    between atoms: _415  and  _416
REMARK  173  A    between atoms: _418  and  _420
REMARK  174  A    between atoms: _420  and  _421
REMARK  175  A    between atoms: _420  and  _423
REMARK  176  A    between atoms: _423  and  _424
REMARK  177  A    between atoms: _427  and  _429
REMARK  178  A    between atoms: _429  and  _430
REMARK  179  A    between atoms: _432  and  _434
REMARK  180  A    between atoms: _434  and  _435
REMARK  181  A    between atoms: _437  and  _439
REMARK  182  A    between atoms: _439  and  _440
REMARK  183  A    between atoms: _439  and  _442
REMARK  184  A    between atoms: _442  and  _443
REMARK  185  A    between atoms: _446  and  _448
REMARK  186  A    between atoms: _448  and  _449
REMARK  187  A    between atoms: _451  and  _453
REMARK  188  A    between atoms: _453  and  _454
REMARK  189  A    between atoms: _456  and  _458
REMARK  190  A    between atoms: _458  and  _459
REMARK  191  A    between atoms: _458  and  _461
REMARK  192  A    between atoms: _461  and  _462
REMARK  193  A    between atoms: _468  and  _470
REMARK  194  A    between atoms: _470  and  _471
REMARK  195  A    between atoms: _470  and  _473
REMARK  196  A    between atoms: _473  and  _474
REMARK  197  A    between atoms: _477  and  _479
REMARK  198  A    between atoms: _479  and  _480
REMARK  199  A    between atoms: _479  and  _482
REMARK  200  A    between atoms: _482  and  _483
REMARK  201  A    between atoms: _487  and  _488
REMARK  202  A    between atoms: _493  and  _495
REMARK  203  A    between atoms: _495  and  _496
REMARK  204  A    between atoms: _495  and  _498
REMARK  205  A    between atoms: _498  and  _499
REMARK  206  A    between atoms: _503  and  _504
REMARK  207  A    between atoms: _509  and  _511
REMARK  208  A    between atoms: _511  and  _512
REMARK  209  A    between atoms: _511  and  _514
REMARK  210  A    between atoms: _517  and  _519
REMARK  211  A    between atoms: _519  and  _520
REMARK  212  A    between atoms: _519  and  _522
REMARK  213  A    between atoms: _522  and  _523
REMARK  214  A    between atoms: _528  and  _530
REMARK  215  A    between atoms: _530  and  _531
REMARK  216  A    between atoms: _530  and  _533
REMARK  217  A    between atoms: _533  and  _534
REMARK  218  A    between atoms: _537  and  _539
REMARK  219  A    between atoms: _539  and  _540
REMARK  220  A    between atoms: _539  and  _542
REMARK  221  A    between atoms: _542  and  _543
REMARK  222  A    between atoms: _546  and  _548
REMARK  223  A    between atoms: _548  and  _549
REMARK  224  A    between atoms: _551  and  _553
REMARK  225  A    between atoms: _553  and  _554
REMARK  226  A    between atoms: _553  and  _556
REMARK  227  A    between atoms: _556  and  _557
REMARK  228  A    between atoms: _557  and  _558
REMARK  229  A    between atoms: _558  and  _559
REMARK                            x       y       z     vdW  Elec       q    Type
REMARK                         _______ _______ _______ _____ _____    ______ ____
ROOT
ATOM      1  CA  LEU A   1      12.154  10.919  17.204  0.00  0.00    +0.133 C 
ENDROOT
BRANCH   1   2
ATOM      2  N   LEU A   1      10.735  11.140  17.547  0.00  0.00    -0.239 NA
ATOM      3  H   LEU A   1      10.201  11.910  17.096  0.00  0.00    +0.142 HD
ENDBRANCH   1   2
BRANCH   1   4
ATOM      4  C   LEU A   1      13.135  11.617  18.131  0.00  0.00    +0.224 C 
ATOM      5  O   LEU A   1      13.100  12.810  18.358  0.00  0.00    -0.287 OA
ENDBRANCH   1   4
BRANCH   1   6
ATOM      6  CB  LEU A   1      12.473  11.352  15.763  0.00  0.00    +0.025 C 
BRANCH   6   7
ATOM      7  CG  LEU A   1      11.633  10.622  14.716  0.00  0.00    +0.002 C 
ATOM      8  CD2 LEU A   1      12.051   9.170  14.634  0.00  0.00    +0.000 C 
ATOM      9  CD1 LEU A   1      11.775  11.301  13.352  0.00  0.00    +0.000 C 
ENDBRANCH   6   7
ENDBRANCH   1   6
TORSDOF 4
REMARK  Name = ../refined-set-2016/1hvj/1hvj_pocket.pdb
REMARK  229 active torsions:
REMARK  status: ('A' for Active; 'I' for Inactive)
REMARK    1  A    between atoms: _1  and  _3
REMARK    2  A    between atoms: _3  and  _4
REMARK    3  A    between atoms: _3  and  _6
REMARK    4  A    between atoms: _6  and  _7
REMARK    5  A    between atoms: _7  and  _8
REMARK    6  A    between atoms: _8  and  _9
REMARK    7  A    between atoms: _19  and  _20
REMARK    8  A    between atoms: _25  and  _27
REMARK    9  A    between atoms: _27  and  _28
REMARK   10  A    between atoms: _27  and  _30
REMARK   11  A    between atoms: _30  and  _31
REMARK   12  A    between atoms: _34  and  _36
REMARK   13  A    between atoms: _36  and  _37
REMARK   14  A    between atoms: _36  and  _39
REMARK   15  A    between atoms: _39  and  _40
REMARK   16  A    between atoms: _43  and  _45
REMARK   17  A    between atoms: _45  and  _46
REMARK   18  A    between atoms: _45  and  _48
REMARK   19  A    between atoms: _48  and  _49
REMARK   20  A    between atoms: _52  and  _54
REMARK   21  A    between atoms: _54  and  _55
REMARK   22  A    between atoms: _54  and  _57
REMARK   23  A    between atoms: _57  and  _58
REMARK   24  A    between atoms: _61  and  _63
REMARK   25  A    between atoms: _63  and  _64
REMARK   26  A    between atoms: _63  and  _66
REMARK   27  A    between atoms: _66  and  _67
REMARK   28  A    between atoms: _70  and  _72
REMARK   29  A    between atoms: _72  and  _73
REMARK   30  A    between atoms: _75  and  _77
REMARK   31  A    between atoms: _77  and  _78
REMARK   32  A    between atoms: _81  and  _83
REMARK   33  A    between atoms: _83  and  _84
REMARK   34  A    between atoms: _83  and  _86
REMARK   35  A    between atoms: _86  and  _87
REMARK   36  A    between atoms: _90  and  _92
REMARK   37  A    between atoms: _92  and  _93
REMARK   38  A    between atoms: _92  and  _95
REMARK   39  A    between atoms: _95  and  _96
REMARK   40  A    between atoms: _99  and  _101
REMARK   41  A    between atoms: _101  and  _102
REMARK   42  A    between atoms: _101  and  _104
REMARK   43  A    between atoms: _104  and  _105
REMARK   44  A    between atoms: _108  and  _110
REMARK   45  A    between atoms: _110  and  _111
REMARK   46  A    between atoms: _110  and  _113
REMARK   47  A    between atoms: _116  and  _118
REMARK   48  A    between atoms: _118  and  _119
REMARK   49  A    between atoms: _118  and  _121
REMARK   50  A    between atoms: _121  and  _122
REMARK   51  A    between atoms: _122  and  _123
REMARK   52  A    between atoms: _123  and  _124
REMARK   53  A    between atoms: _124  and  _125
REMARK   54  A    between atoms: _129  and  _131
REMARK   55  A    between atoms: _131  and  _132
REMARK   56  A    between atoms: _131  and  _134
REMARK   57  A    between atoms: _134  and  _135
REMARK   58  A    between atoms: _135  and  _136
REMARK   59  A    between atoms: _138  and  _140
REMARK   60  A    between atoms: _140  and  _141
REMARK   61  A    between atoms: _140  and  _143
REMARK   62  A    between atoms: _143  and  _144
REMARK   63  A    between atoms: _147  and  _149
REMARK   64  A    between atoms: _149  and  _150
REMARK   65  A    between atoms: _152  and  _154
REMARK   66  A    between atoms: _154  and  _155
REMARK   67  A    between atoms: _157  and  _159
REMARK   68  A    between atoms: _159  and  _160
REMARK   69  A    between atoms: _159  and  _162
REMARK   70  A    between atoms: _162  and  _163
REMARK   71  A    between atoms: _166  and  _168
REMARK   72  A    between atoms: _168  and  _169
REMARK   73  A    between atoms: _171  and  _173
REMARK   74  A    between atoms: _173  and  _174
REMARK   75  A    between atoms: _176  and  _178
REMARK   76  A    between atoms: _178  and  _179
REMARK   77  A    between atoms: _178  and  _181
REMARK   78  A    between atoms: _181  and  _182
REMARK   79  A    between atoms: _188  and  _190
REMARK   80  A    between atoms: _190  and  _191
REMARK   81  A    between atoms: _190  and  _193
REMARK   82  A    between atoms: _193  and  _194
REMARK   83  A    between atoms: _197  and  _199
REMARK   84  A    between atoms: _199  and  _200
REMARK   85  A    between atoms: _199  and  _202
REMARK   86  A    between atoms: _202  and  _203
REMARK   87  A    between atoms: _207  and  _208
REMARK   88  A    between atoms: _213  and  _215
REMARK   89  A    between atoms: _215  and  _216
REMARK   90  A    between atoms: _215  and  _218
REMARK   91  A    between atoms: _218  and  _219
REMARK   92  A    between atoms: _223  and  _224
REMARK   93  A    between atoms: _229  and  _231
REMARK   94  A    between atoms: _231  and  _232
REMARK   95  A    between atoms: _231  and  _234
REMARK   96  A    between atoms: _237  and  _239
REMARK   97  A    between atoms: _239  and  _240
REMARK   98  A    between atoms: _239  and  _242
REMARK   99  A    between atoms: _242  and  _243
REMARK  100  A    between atoms: _248  and  _250
REMARK  101  A    between atoms: _250  and  _251
REMARK  102  A    between atoms: _250  and  _253
REMARK  103  A    between atoms: _253  and  _254
REMARK  104  A    between atoms: _257  and  _259
REMARK  105  A    between atoms: _259  and  _260
REMARK  106  A    between atoms: _259  and  _262
REMARK  107  A    between atoms: _262  and  _263
REMARK  108  A    between atoms: _266  and  _268
REMARK  109  A    between atoms: _268  and  _269
REMARK  110  A    between atoms: _271  and  _273
REMARK  111  A    between atoms: _273  and  _274
REMARK  112  A    between atoms: _273  and  _276
REMARK  113  A    between atoms: _276  and  _277
REMARK  114  A    between atoms: _277  and  _278
REMARK  115  A    between atoms: _278  and  _279
REMARK  116  A    between atoms: _288  and  _290
REMARK  117  A    between atoms: _290  and  _291
REMARK  118  A    between atoms: _290  and  _293
REMARK  119  A    between atoms: _293  and  _294
REMARK  120  A    between atoms: _294  and  _295
REMARK  121  A    between atoms: _295  and  _296
REMARK  122  A    between atoms: _305  and  _307
REMARK  123  A    between atoms: _307  and  _308
REMARK  124  A    between atoms: _307  and  _310
REMARK  125  A    between atoms: _310  and  _311
REMARK  126  A    between atoms: _314  and  _316
REMARK  127  A    between atoms: _316  and  _317
REMARK  128  A    between atoms: _316  and  _319
REMARK  129  A    between atoms: _319  and  _320
REMARK  130  A    between atoms: _323  and  _325
REMARK  131  A    between atoms: _325  and  _326
REMARK  132  A    between atoms: _325  and  _328
REMARK  133  A    between atoms: _328  and  _329
REMARK  134  A    between atoms: _332  and  _334
REMARK  135  A    between atoms: _334  and  _335
REMARK  136  A    between atoms: _334  and  _337
REMARK  137  A    between atoms: _337  and  _338
REMARK  138  A    between atoms: _341  and  _343
REMARK  139  A    between atoms: _343  and  _344
REMARK  140  A    between atoms: _343  and  _346
REMARK  141  A    between atoms: _346  and  _347
REMARK  142  A    between atoms: _350  and  _352
REMARK  143  A    between atoms: _352  and  _353
REMARK  144  A    between atoms: _355  and  _357
REMARK  145  A    between atoms: _357  and  _358
REMARK  146  A    between atoms: _361  and  _363
REMARK  147  A    between atoms: _363  and  _364
REMARK  148  A    between atoms: _363  and  _366
REMARK  149  A    between atoms: _366  and  _367
REMARK  150  A    between atoms: _370  and  _372
REMARK  151  A    between atoms: _372  and  _373
REMARK  152  A    between atoms: _372  and  _375
REMARK  153  A    between atoms: _375  and  _376
REMARK  154  A    between atoms: _379  and  _381
REMARK  155  A    between atoms: _381  and  _382
REMARK  156  A    between atoms: _381  and  _384
REMARK  157  A    between atoms: _384  and  _385
REMARK  158  A    between atoms: _388  and  _390
REMARK  159  A    between atoms: _390  and  _391
REMARK  160  A    between atoms: _390  and  _393
REMARK  161  A    between atoms: _396  and  _398
REMARK  162  A    between atoms: _398  and  _399
REMARK  163  A    between atoms: _398  and  _401
REMARK  164  A    between atoms: _401  and  _402
REMARK  165  A    between atoms: _402  and  _403
REMARK  166  A    between atoms: _403  and  _404
REMARK  167  A    between atoms: _404  and  _405
REMARK  168  A    between atoms: _409  and  _411
REMARK  169  A    between atoms: _411  and  _412
REMARK  170  A    between atoms: _411  and  _414
REMARK  171  A    between atoms: _414  and  _415
REMARK  172  A    between atoms: _415  and  _416
REMARK  173  A    between atoms: _418  and  _420
REMARK  174  A    between atoms: _420  and  _421
REMARK  175  A    between atoms: _420  and  _423
REMARK  176  A    between atoms: _423  and  _424
REMARK  177  A    between atoms: _427  and  _429
REMARK  178  A    between atoms: _429  and  _430
REMARK  179  A    between atoms: _432  and  _434
REMARK  180  A    between atoms: _434  and  _435
REMARK  181  A    between atoms: _437  and  _439
REMARK  182  A    between atoms: _439  and  _440
REMARK  183  A    between atoms: _439  and  _442
REMARK  184  A    between atoms: _442  and  _443
REMARK  185  A    between atoms: _446  and  _448
REMARK  186  A    between atoms: _448  and  _449
REMARK  187  A    between atoms: _451  and  _453
REMARK  188  A    between atoms: _453  and  _454
REMARK  189  A    between atoms: _456  and  _458
REMARK  190  A    between atoms: _458  and  _459
REMARK  191  A    between atoms: _458  and  _461
REMARK  192  A    between atoms: _461  and  _462
REMARK  193  A    between atoms: _468  and  _470
REMARK  194  A    between atoms: _470  and  _471
REMARK  195  A    between atoms: _470  and  _473
REMARK  196  A    between atoms: _473  and  _474
REMARK  197  A    between atoms: _477  and  _479
REMARK  198  A    between atoms: _479  and  _480
REMARK  199  A    between atoms: _479  and  _482
REMARK  200  A    between atoms: _482  and  _483
REMARK  201  A    between atoms: _487  and  _488
REMARK  202  A    between atoms: _493  and  _495
REMARK  203  A    between atoms: _495  and  _496
REMARK  204  A    between atoms: _495  and  _498
REMARK  205  A    between atoms: _498  and  _499
REMARK  206  A    between atoms: _503  and  _504
REMARK  207  A    between atoms: _509  and  _511
REMARK  208  A    between atoms: _511  and  _512
REMARK  209  A    between atoms: _511  and  _514
REMARK  210  A    between atoms: _517  and  _519
REMARK  211  A    between atoms: _519  and  _520
REMARK  212  A    between atoms: _519  and  _522
REMARK  213  A    between atoms: _522  and  _523
REMARK  214  A    between atoms: _528  and  _530
REMARK  215  A    between atoms: _530  and  _531
REMARK  216  A    between atoms: _530  and  _533
REMARK  217  A    between atoms: _533  and  _534
REMARK  218  A    between atoms: _537  and  _539
REMARK  219  A    between atoms: _539  and  _540
REMARK  220  A    between atoms: _539  and  _542
REMARK  221  A    between atoms: _542  and  _543
REMARK  222  A    between atoms: _546  and  _548
REMARK  223  A    between atoms: _548  and  _549
REMARK  224  A    between atoms: _551  and  _553
REMARK  225  A    between atoms: _553  and  _554
REMARK  226  A    between atoms: _553  and  _556
REMARK  227  A    between atoms: _556  and  _557
REMARK  228  A    between atoms: _557  and  _558
REMARK  229  A    between atoms: _558  and  _559
REMARK                            x       y       z     vdW  Elec       q    Type
REMARK                         _______ _______ _______ _____ _____    ______ ____
ROOT
ATOM      1  C   GLY A   5       5.537  -1.953  20.388  0.00  0.00    +0.243 C 
ATOM      2  N   ALA A   6       6.833  -1.640  20.493  0.00  0.00    -0.297 N 
ATOM      3  H   ALA A   6       7.111  -0.693  20.821  0.00  0.00    +0.150 HD
ATOM      4  O   GLY A   5       5.155  -3.031  19.952  0.00  0.00    -0.273 OA
ENDROOT
BRANCH   2   5
ATOM      5  CA  ALA A   6       7.866  -2.624  20.149  0.00  0.00    +0.149 C 
ATOM      6  CB  ALA A   6       9.026  -1.946  19.404  0.00  0.00    +0.031 C 
BRANCH   5   7
ATOM      7  C   ALA A   6       8.465  -3.329  21.348  0.00  0.00    +0.241 C 
ATOM      8  O   ALA A   6       8.946  -2.711  22.288  0.00  0.00    -0.273 OA
ATOM      9  N   ASP A   7       8.470  -4.651  21.313  0.00  0.00    -0.297 N 
ATOM     10  H   ASP A   7       8.022  -5.200  20.552  0.00  0.00    +0.150 HD
BRANCH   9  11
ATOM     11  CA  ASP A   7       9.175  -5.281  22.461  0.00  0.00    +0.160 C 
BRANCH  11  12
ATOM     12  C   ASP A   7      10.697  -5.195  22.497  0.00  0.00    +0.241 C 
ATOM     13  O   ASP A   7      11.355  -5.278  23.529  0.00  0.00    -0.273 OA
ATOM     14  N   ASP A   8      11.195  -5.054  21.275  0.00  0.00    -0.297 N 
ATOM     15  H   ASP A   8      10.510  -4.898  20.508  0.00  0.00    +0.150 HD
BRANCH  14  16
ATOM     16  CA  ASP A   8      12.602  -5.095  20.896  0.00  0.00    +0.160 C 
BRANCH  16  17
ATOM     17  C   ASP A   8      13.107  -3.800  20.303  0.00  0.00    +0.241 C 
ATOM     18  N   THR A   9      14.415  -3.664  20.378  0.00  0.00    -0.295 N 
ATOM     19  H   THR A   9      14.989  -4.338  20.924  0.00  0.00    +0.150 HD
ATOM     20  O   ASP A   8      12.380  -2.981  19.767  0.00  0.00    -0.273 OA
BRANCH  18  21
ATOM     21  CA  THR A   9      15.043  -2.545  19.677  0.00  0.00    +0.176 C 
BRANCH  21  22
ATOM     22  C   THR A   9      15.554  -2.964  18.328  0.00  0.00    +0.243 C 
ATOM     23  O   THR A   9      16.192  -3.985  18.190  0.00  0.00    -0.273 OA
ATOM     24  N   VAL A  10      15.246  -2.159  17.315  0.00  0.00    -0.298 N 
ATOM     25  H   VAL A  10      14.708  -1.284  17.481  0.00  0.00    +0.150 HD
BRANCH  24  26
ATOM     26  CA  VAL A  10      15.678  -2.525  15.954  0.00  0.00    +0.137 C 
BRANCH  26  27
ATOM     27  CB  VAL A  10      14.477  -3.022  15.131  0.00  0.00    +0.026 C 
ATOM     28  CG2 VAL A  10      13.684  -4.109  15.871  0.00  0.00    +0.002 C 
ATOM     29  CG1 VAL A  10      14.900  -3.562  13.758  0.00  0.00    +0.002 C 
ENDBRANCH  26  27
BRANCH  26  30
ATOM     30  C   VAL A  10      16.375  -1.397  15.206  0.00  0.00    +0.227 C 
ATOM     31  O   VAL A  10      15.861  -0.300  15.049  0.00  0.00    -0.286 OA
ENDBRANCH  26  30
ENDBRANCH  24  26
ENDBRANCH  21  22
BRANCH  21  32
ATOM     32  CB  THR A   9      16.197  -1.994  20.534  0.00  0.00    +0.137 C 
ATOM     33  CG2 THR A   9      17.104  -0.971  19.845  0.00  0.00    +0.034 C 
BRANCH  32  34
ATOM     34  OG1 THR A   9      15.623  -1.389  21.703  0.00  0.00    -0.382 OA
ATOM     35  HG1 THR A   9      15.113  -2.070  22.209  0.00  0.00    +0.210 HD
ENDBRANCH  32  34
ENDBRANCH  21  32
ENDBRANCH  18  21
ENDBRANCH  16  17
BRANCH  16  36
ATOM     36  CB  ASP A   8      12.813  -6.144  19.790  0.00  0.00    +0.143 C 
BRANCH  36  37
ATOM     37  CG  ASP A   8      12.595  -7.535  20.354  0.00  0.00    +0.367 C 
ATOM     38  OD2 ASP A   8      13.255  -7.890  21.339  0.00  0.00    -0.246 OA
ATOM     39  OD1 ASP A   8      11.754  -8.257  19.809  0.00  0.00    -0.246 OA
ENDBRANCH  36  37
ENDBRANCH  16  36
ENDBRANCH  14  16
ENDBRANCH  11  12
BRANCH  11  40
ATOM     40  CB  ASP A   7       8.955  -6.777  22.505  0.00  0.00    +0.143 C 
BRANCH  40  41
ATOM     41  CG  ASP A   7       7.543  -7.169  22.809  0.00  0.00    +0.367 C 
ATOM     42  OD2 ASP A   7       6.720  -6.327  23.188  0.00  0.00    -0.246 OA
ATOM     43  OD1 ASP A   7       7.286  -8.358  22.673  0.00  0.00    -0.246 OA
ENDBRANCH  40  41
ENDBRANCH  11  40
ENDBRANCH   9  11
ENDBRANCH   5   7
ENDBRANCH   2   5
BRANCH   1  44
ATOM     44  CA  GLY A   5       4.560  -0.889  20.916  0.00  0.00    +0.176 C 
BRANCH  44  47
ATOM     45  C   THR A   4       5.425   0.355  22.796  0.00  0.00    +0.243 C 
ATOM     46  O   THR A   4       5.090  -0.542  23.551  0.00  0.00    -0.273 OA
ATOM     47  N   GLY A   5       5.174   0.312  21.490  0.00  0.00    -0.295 N 
ATOM     48  H   GLY A   5       5.411   1.122  20.883  0.00  0.00    +0.150 HD
BRANCH  45  49
ATOM     49  CA  THR A   4       6.140   1.613  23.263  0.00  0.00    +0.176 C 
BRANCH  49  51
ATOM     50  C   ASP A   3       7.814   2.040  21.580  0.00  0.00    +0.241 C 
ATOM     51  N   THR A   4       6.766   2.501  22.252  0.00  0.00    -0.295 N 
ATOM     52  H   THR A   4       6.395   3.456  22.075  0.00  0.00    +0.150 HD
ATOM     53  O   ASP A   3       8.226   0.908  21.757  0.00  0.00    -0.273 OA
BRANCH  50  54
ATOM     54  CA  ASP A   3       8.358   2.982  20.515  0.00  0.00    +0.160 C 
BRANCH  54  56
ATOM     55  C   LEU A   2       9.427   5.156  20.708  0.00  0.00    +0.241 C 
ATOM     56  N   ASP A   3       9.479   3.846  20.902  0.00  0.00    -0.297 N 
ATOM     57  H   ASP A   3      10.326   3.425  21.334  0.00  0.00    +0.150 HD
ATOM     58  O   LEU A   2       8.399   5.753  20.438  0.00  0.00    -0.273 OA
BRANCH  55  59
ATOM     59  CA  LEU A   2      10.762   5.862  20.762  0.00  0.00    +0.149 C 
BRANCH  59  61
ATOM     60  C   LEU A   1      11.603   5.740  18.537  0.00  0.00    +0.238 C 
ATOM     61  N   LEU A   2      11.111   6.520  19.488  0.00  0.00    -0.297 N 
ATOM     62  H   LEU A   2      10.978   7.541  19.344  0.00  0.00    +0.150 HD
ATOM     63  O   LEU A   1      11.875   4.565  18.729  0.00  0.00    -0.274 OA
BRANCH  60  64
ATOM     64  CA  LEU A   1      11.806   6.377  17.184  0.00  0.00    +0.145 C 
BRANCH  64  65
ATOM     65  N   LEU A   1      13.199   6.273  16.727  0.00  0.00    -0.238 NA
ATOM     66  H   LEU A   1      13.464   5.505  16.077  0.00  0.00    +0.142 HD
ENDBRANCH  64  65
BRANCH  64  67
ATOM     67  CB  LEU A   1      10.956   5.624  16.155  0.00  0.00    +0.026 C 
BRANCH  67  68
ATOM     68  CG  LEU A   1       9.448   5.621  16.325  0.00  0.00    +0.002 C 
ATOM     69  CD2 LEU A   1       8.812   6.995  16.112  0.00  0.00    +0.000 C 
ATOM     70  CD1 LEU A   1       8.859   4.652  15.306  0.00  0.00    +0.000 C 
ENDBRANCH  67  68
ENDBRANCH  64  67
ENDBRANCH  60  64
ENDBRANCH  59  61
BRANCH  59  71
ATOM     71  CB  LEU A   2      10.692   6.859  21.906  0.00  0.00    +0.029 C 
BRANCH  71  72
ATOM     72  CG  LEU A   2      11.935   7.710  22.146  0.00  0.00    +0.002 C 
ATOM     73  CD2 LEU A   2      11.552   8.780  23.172  0.00  0.00    +0.000 C 
ATOM     74  CD1 LEU A   2      13.173   6.888  22.539  0.00  0.00    +0.000 C 
ENDBRANCH  71  72
ENDBRANCH  59  71
ENDBRANCH  55  59
ENDBRANCH  54  56
BRANCH  54  75
ATOM     75  CB  ASP A   3       8.796   2.165  19.296  0.00  0.00    +0.143 C 
BRANCH  75  76
ATOM     76  CG  ASP A   3       7.654   1.405  18.621  0.00  0.00    +0.367 C 
ATOM     77  OD2 ASP A   3       6.496   1.483  19.069  0.00  0.00    -0.246 OA
ATOM     78  OD1 ASP A   3       7.940   0.724  17.627  0.00  0.00    -0.246 OA
ENDBRANCH  75  76
ENDBRANCH  54  75
ENDBRANCH  50  54
ENDBRANCH  49  51
BRANCH  49  79
ATOM     79  CB  THR A   4       5.132   2.374  24.105  0.00  0.00    +0.137 C 
ATOM     80  CG2 THR A   4       5.805   3.518  24.834  0.00  0.00    +0.034 C 
BRANCH  79  81
ATOM     81  OG1 THR A   4       4.106   2.878  23.259  0.00  0.00    -0.382 OA
ATOM     82  HG1 THR A   4       3.657   2.124  22.801  0.00  0.00    +0.210 HD
ENDBRANCH  79  81
ENDBRANCH  49  79
ENDBRANCH  45  49
ENDBRANCH  44  47
ENDBRANCH   1  44
TORSDOF 35
REMARK  Name = ../refined-set-2016/1hvj/1hvj_pocket.pdb
REMARK  229 active torsions:
REMARK  status: ('A' for Active; 'I' for Inactive)
REMARK    1  A    between atoms: _1  and  _3
REMARK    2  A    between atoms: _3  and  _4
REMARK    3  A    between atoms: _3  and  _6
REMARK    4  A    between atoms: _6  and  _7
REMARK    5  A    between atoms: _7  and  _8
REMARK    6  A    between atoms: _8  and  _9
REMARK    7  A    between atoms: _19  and  _20
REMARK    8  A    between atoms: _25  and  _27
REMARK    9  A    between atoms: _27  and  _28
REMARK   10  A    between atoms: _27  and  _30
REMARK   11  A    between atoms: _30  and  _31
REMARK   12  A    between atoms: _34  and  _36
REMARK   13  A    between atoms: _36  and  _37
REMARK   14  A    between atoms: _36  and  _39
REMARK   15  A    between atoms: _39  and  _40
REMARK   16  A    between atoms: _43  and  _45
REMARK   17  A    between atoms: _45  and  _46
REMARK   18  A    between atoms: _45  and  _48
REMARK   19  A    between atoms: _48  and  _49
REMARK   20  A    between atoms: _52  and  _54
REMARK   21  A    between atoms: _54  and  _55
REMARK   22  A    between atoms: _54  and  _57
REMARK   23  A    between atoms: _57  and  _58
REMARK   24  A    between atoms: _61  and  _63
REMARK   25  A    between atoms: _63  and  _64
REMARK   26  A    between atoms: _63  and  _66
REMARK   27  A    between atoms: _66  and  _67
REMARK   28  A    between atoms: _70  and  _72
REMARK   29  A    between atoms: _72  and  _73
REMARK   30  A    between atoms: _75  and  _77
REMARK   31  A    between atoms: _77  and  _78
REMARK   32  A    between atoms: _81  and  _83
REMARK   33  A    between atoms: _83  and  _84
REMARK   34  A    between atoms: _83  and  _86
REMARK   35  A    between atoms: _86  and  _87
REMARK   36  A    between atoms: _90  and  _92
REMARK   37  A    between atoms: _92  and  _93
REMARK   38  A    between atoms: _92  and  _95
REMARK   39  A    between atoms: _95  and  _96
REMARK   40  A    between atoms: _99  and  _101
REMARK   41  A    between atoms: _101  and  _102
REMARK   42  A    between atoms: _101  and  _104
REMARK   43  A    between atoms: _104  and  _105
REMARK   44  A    between atoms: _108  and  _110
REMARK   45  A    between atoms: _110  and  _111
REMARK   46  A    between atoms: _110  and  _113
REMARK   47  A    between atoms: _116  and  _118
REMARK   48  A    between atoms: _118  and  _119
REMARK   49  A    between atoms: _118  and  _121
REMARK   50  A    between atoms: _121  and  _122
REMARK   51  A    between atoms: _122  and  _123
REMARK   52  A    between atoms: _123  and  _124
REMARK   53  A    between atoms: _124  and  _125
REMARK   54  A    between atoms: _129  and  _131
REMARK   55  A    between atoms: _131  and  _132
REMARK   56  A    between atoms: _131  and  _134
REMARK   57  A    between atoms: _134  and  _135
REMARK   58  A    between atoms: _135  and  _136
REMARK   59  A    between atoms: _138  and  _140
REMARK   60  A    between atoms: _140  and  _141
REMARK   61  A    between atoms: _140  and  _143
REMARK   62  A    between atoms: _143  and  _144
REMARK   63  A    between atoms: _147  and  _149
REMARK   64  A    between atoms: _149  and  _150
REMARK   65  A    between atoms: _152  and  _154
REMARK   66  A    between atoms: _154  and  _155
REMARK   67  A    between atoms: _157  and  _159
REMARK   68  A    between atoms: _159  and  _160
REMARK   69  A    between atoms: _159  and  _162
REMARK   70  A    between atoms: _162  and  _163
REMARK   71  A    between atoms: _166  and  _168
REMARK   72  A    between atoms: _168  and  _169
REMARK   73  A    between atoms: _171  and  _173
REMARK   74  A    between atoms: _173  and  _174
REMARK   75  A    between atoms: _176  and  _178
REMARK   76  A    between atoms: _178  and  _179
REMARK   77  A    between atoms: _178  and  _181
REMARK   78  A    between atoms: _181  and  _182
REMARK   79  A    between atoms: _188  and  _190
REMARK   80  A    between atoms: _190  and  _191
REMARK   81  A    between atoms: _190  and  _193
REMARK   82  A    between atoms: _193  and  _194
REMARK   83  A    between atoms: _197  and  _199
REMARK   84  A    between atoms: _199  and  _200
REMARK   85  A    between atoms: _199  and  _202
REMARK   86  A    between atoms: _202  and  _203
REMARK   87  A    between atoms: _207  and  _208
REMARK   88  A    between atoms: _213  and  _215
REMARK   89  A    between atoms: _215  and  _216
REMARK   90  A    between atoms: _215  and  _218
REMARK   91  A    between atoms: _218  and  _219
REMARK   92  A    between atoms: _223  and  _224
REMARK   93  A    between atoms: _229  and  _231
REMARK   94  A    between atoms: _231  and  _232
REMARK   95  A    between atoms: _231  and  _234
REMARK   96  A    between atoms: _237  and  _239
REMARK   97  A    between atoms: _239  and  _240
REMARK   98  A    between atoms: _239  and  _242
REMARK   99  A    between atoms: _242  and  _243
REMARK  100  A    between atoms: _248  and  _250
REMARK  101  A    between atoms: _250  and  _251
REMARK  102  A    between atoms: _250  and  _253
REMARK  103  A    between atoms: _253  and  _254
REMARK  104  A    between atoms: _257  and  _259
REMARK  105  A    between atoms: _259  and  _260
REMARK  106  A    between atoms: _259  and  _262
REMARK  107  A    between atoms: _262  and  _263
REMARK  108  A    between atoms: _266  and  _268
REMARK  109  A    between atoms: _268  and  _269
REMARK  110  A    between atoms: _271  and  _273
REMARK  111  A    between atoms: _273  and  _274
REMARK  112  A    between atoms: _273  and  _276
REMARK  113  A    between atoms: _276  and  _277
REMARK  114  A    between atoms: _277  and  _278
REMARK  115  A    between atoms: _278  and  _279
REMARK  116  A    between atoms: _288  and  _290
REMARK  117  A    between atoms: _290  and  _291
REMARK  118  A    between atoms: _290  and  _293
REMARK  119  A    between atoms: _293  and  _294
REMARK  120  A    between atoms: _294  and  _295
REMARK  121  A    between atoms: _295  and  _296
REMARK  122  A    between atoms: _305  and  _307
REMARK  123  A    between atoms: _307  and  _308
REMARK  124  A    between atoms: _307  and  _310
REMARK  125  A    between atoms: _310  and  _311
REMARK  126  A    between atoms: _314  and  _316
REMARK  127  A    between atoms: _316  and  _317
REMARK  128  A    between atoms: _316  and  _319
REMARK  129  A    between atoms: _319  and  _320
REMARK  130  A    between atoms: _323  and  _325
REMARK  131  A    between atoms: _325  and  _326
REMARK  132  A    between atoms: _325  and  _328
REMARK  133  A    between atoms: _328  and  _329
REMARK  134  A    between atoms: _332  and  _334
REMARK  135  A    between atoms: _334  and  _335
REMARK  136  A    between atoms: _334  and  _337
REMARK  137  A    between atoms: _337  and  _338
REMARK  138  A    between atoms: _341  and  _343
REMARK  139  A    between atoms: _343  and  _344
REMARK  140  A    between atoms: _343  and  _346
REMARK  141  A    between atoms: _346  and  _347
REMARK  142  A    between atoms: _350  and  _352
REMARK  143  A    between atoms: _352  and  _353
REMARK  144  A    between atoms: _355  and  _357
REMARK  145  A    between atoms: _357  and  _358
REMARK  146  A    between atoms: _361  and  _363
REMARK  147  A    between atoms: _363  and  _364
REMARK  148  A    between atoms: _363  and  _366
REMARK  149  A    between atoms: _366  and  _367
REMARK  150  A    between atoms: _370  and  _372
REMARK  151  A    between atoms: _372  and  _373
REMARK  152  A    between atoms: _372  and  _375
REMARK  153  A    between atoms: _375  and  _376
REMARK  154  A    between atoms: _379  and  _381
REMARK  155  A    between atoms: _381  and  _382
REMARK  156  A    between atoms: _381  and  _384
REMARK  157  A    between atoms: _384  and  _385
REMARK  158  A    between atoms: _388  and  _390
REMARK  159  A    between atoms: _390  and  _391
REMARK  160  A    between atoms: _390  and  _393
REMARK  161  A    between atoms: _396  and  _398
REMARK  162  A    between atoms: _398  and  _399
REMARK  163  A    between atoms: _398  and  _401
REMARK  164  A    between atoms: _401  and  _402
REMARK  165  A    between atoms: _402  and  _403
REMARK  166  A    between atoms: _403  and  _404
REMARK  167  A    between atoms: _404  and  _405
REMARK  168  A    between atoms: _409  and  _411
REMARK  169  A    between atoms: _411  and  _412
REMARK  170  A    between atoms: _411  and  _414
REMARK  171  A    between atoms: _414  and  _415
REMARK  172  A    between atoms: _415  and  _416
REMARK  173  A    between atoms: _418  and  _420
REMARK  174  A    between atoms: _420  and  _421
REMARK  175  A    between atoms: _420  and  _423
REMARK  176  A    between atoms: _423  and  _424
REMARK  177  A    between atoms: _427  and  _429
REMARK  178  A    between atoms: _429  and  _430
REMARK  179  A    between atoms: _432  and  _434
REMARK  180  A    between atoms: _434  and  _435
REMARK  181  A    between atoms: _437  and  _439
REMARK  182  A    between atoms: _439  and  _440
REMARK  183  A    between atoms: _439  and  _442
REMARK  184  A    between atoms: _442  and  _443
REMARK  185  A    between atoms: _446  and  _448
REMARK  186  A    between atoms: _448  and  _449
REMARK  187  A    between atoms: _451  and  _453
REMARK  188  A    between atoms: _453  and  _454
REMARK  189  A    between atoms: _456  and  _458
REMARK  190  A    between atoms: _458  and  _459
REMARK  191  A    between atoms: _458  and  _461
REMARK  192  A    between atoms: _461  and  _462
REMARK  193  A    between atoms: _468  and  _470
REMARK  194  A    between atoms: _470  and  _471
REMARK  195  A    between atoms: _470  and  _473
REMARK  196  A    between atoms: _473  and  _474
REMARK  197  A    between atoms: _477  and  _479
REMARK  198  A    between atoms: _479  and  _480
REMARK  199  A    between atoms: _479  and  _482
REMARK  200  A    between atoms: _482  and  _483
REMARK  201  A    between atoms: _487  and  _488
REMARK  202  A    between atoms: _493  and  _495
REMARK  203  A    between atoms: _495  and  _496
REMARK  204  A    between atoms: _495  and  _498
REMARK  205  A    between atoms: _498  and  _499
REMARK  206  A    between atoms: _503  and  _504
REMARK  207  A    between atoms: _509  and  _511
REMARK  208  A    between atoms: _511  and  _512
REMARK  209  A    between atoms: _511  and  _514
REMARK  210  A    between atoms: _517  and  _519
REMARK  211  A    between atoms: _519  and  _520
REMARK  212  A    between atoms: _519  and  _522
REMARK  213  A    between atoms: _522  and  _523
REMARK  214  A    between atoms: _528  and  _530
REMARK  215  A    between atoms: _530  and  _531
REMARK  216  A    between atoms: _530  and  _533
REMARK  217  A    between atoms: _533  and  _534
REMARK  218  A    between atoms: _537  and  _539
REMARK  219  A    between atoms: _539  and  _540
REMARK  220  A    between atoms: _539  and  _542
REMARK  221  A    between atoms: _542  and  _543
REMARK  222  A    between atoms: _546  and  _548
REMARK  223  A    between atoms: _548  and  _549
REMARK  224  A    between atoms: _551  and  _553
REMARK  225  A    between atoms: _553  and  _554
REMARK  226  A    between atoms: _553  and  _556
REMARK  227  A    between atoms: _556  and  _557
REMARK  228  A    between atoms: _557  and  _558
REMARK  229  A    between atoms: _558  and  _559
REMARK                            x       y       z     vdW  Elec       q    Type
REMARK                         _______ _______ _______ _____ _____    ______ ____
ROOT
ATOM      1  C   GLY A   5       4.047  -6.776  11.569  0.00  0.00    +0.243 C 
ATOM      2  N   ILE A   6       3.547  -5.607  11.216  0.00  0.00    -0.297 N 
ATOM      3  H   ILE A   6       4.043  -4.732  11.482  0.00  0.00    +0.150 HD
ATOM      4  O   GLY A   5       3.572  -7.836  11.203  0.00  0.00    -0.273 OA
ENDROOT
BRANCH   2   5
ATOM      5  CA  ILE A   6       2.293  -5.532  10.449  0.00  0.00    +0.149 C 
BRANCH   5   6
ATOM      6  C   ILE A   6       2.152  -6.424   9.212  0.00  0.00    +0.241 C 
ATOM      7  O   ILE A   6       1.202  -7.168   9.040  0.00  0.00    -0.273 OA
ATOM      8  N   GLY A   7       3.143  -6.348   8.338  0.00  0.00    -0.295 N 
ATOM      9  H   GLY A   7       4.003  -5.793   8.526  0.00  0.00    +0.150 HD
BRANCH   8  10
ATOM     10  CA  GLY A   7       2.955  -7.096   7.084  0.00  0.00    +0.176 C 
BRANCH  10  11
ATOM     11  C   GLY A   7       3.646  -8.458   7.003  0.00  0.00    +0.243 C 
ATOM     12  N   GLY A   8       4.138  -8.898   8.144  0.00  0.00    -0.295 N 
ATOM     13  H   GLY A   8       3.924  -8.423   9.044  0.00  0.00    +0.150 HD
ATOM     14  O   GLY A   7       3.784  -9.079   5.969  0.00  0.00    -0.273 OA
BRANCH  12  15
ATOM     15  CA  GLY A   8       4.997 -10.080   8.093  0.00  0.00    +0.176 C 
BRANCH  15  16
ATOM     16  C   GLY A   8       6.349  -9.958   8.799  0.00  0.00    +0.243 C 
ATOM     17  O   GLY A   8       6.578  -9.190   9.725  0.00  0.00    -0.273 OA
ATOM     18  N   PHE A   9       7.255 -10.798   8.342  0.00  0.00    -0.297 N 
ATOM     19  H   PHE A   9       7.068 -11.361   7.488  0.00  0.00    +0.150 HD
BRANCH  18  20
ATOM     20  CA  PHE A   9       8.532 -10.929   9.054  0.00  0.00    +0.153 C 
BRANCH  20  21
ATOM     21  C   PHE A   9       9.753 -10.469   8.285  0.00  0.00    +0.241 C 
ATOM     22  N   ILE A  10      10.701  -9.931   9.039  0.00  0.00    -0.298 N 
ATOM     23  H   ILE A  10      10.496  -9.632  10.014  0.00  0.00    +0.150 HD
ATOM     24  O   PHE A   9       9.874 -10.610   7.081  0.00  0.00    -0.273 OA
BRANCH  22  25
ATOM     25  CA  ILE A  10      12.047  -9.764   8.473  0.00  0.00    +0.137 C 
BRANCH  25  26
ATOM     26  C   ILE A  10      13.162 -10.477   9.234  0.00  0.00    +0.227 C 
ATOM     27  O   ILE A  10      13.087 -10.822  10.405  0.00  0.00    -0.286 OA
ENDBRANCH  25  26
BRANCH  25  28
ATOM     28  CB  ILE A  10      12.459  -8.288   8.356  0.00  0.00    +0.026 C 
ATOM     29  CG2 ILE A  10      11.529  -7.542   7.393  0.00  0.00    +0.002 C 
BRANCH  28  30
ATOM     30  CG1 ILE A  10      12.540  -7.577   9.710  0.00  0.00    +0.002 C 
ATOM     31  CD1 ILE A  10      13.077  -6.143   9.633  0.00  0.00    +0.000 C 
ENDBRANCH  28  30
ENDBRANCH  25  28
ENDBRANCH  22  25
ENDBRANCH  20  21
BRANCH  20  32
ATOM     32  CB  PHE A   9       8.790 -12.399   9.449  0.00  0.00    +0.055 C 
BRANCH  32  33
ATOM     33  CG  PHE A   9       7.834 -12.909  10.507  0.00  0.00    -0.020 A 
ATOM     34  CD2 PHE A   9       8.287 -13.062  11.838  0.00  0.00    -0.004 A 
ATOM     35  CE2 PHE A   9       7.373 -13.468  12.838  0.00  0.00    -0.000 A 
ATOM     36  CZ  PHE A   9       6.031 -13.729  12.507  0.00  0.00    -0.000 A 
ATOM     37  CE1 PHE A   9       5.588 -13.590  11.179  0.00  0.00    -0.000 A 
ATOM     38  CD1 PHE A   9       6.485 -13.176  10.173  0.00  0.00    -0.004 A 
ENDBRANCH  32  33
ENDBRANCH  20  32
ENDBRANCH  18  20
ENDBRANCH  15  16
ENDBRANCH  12  15
ENDBRANCH  10  11
ENDBRANCH   8  10
ENDBRANCH   5   6
BRANCH   5  39
ATOM     39  CB  ILE A   6       2.047  -4.020  10.152  0.00  0.00    +0.027 C 
ATOM     40  CG2 ILE A   6       1.365  -3.620   8.841  0.00  0.00    +0.002 C 
BRANCH  39  41
ATOM     41  CG1 ILE A   6       1.212  -3.397  11.262  0.00  0.00    +0.002 C 
ATOM     42  CD1 ILE A   6      -0.236  -3.884  11.278  0.00  0.00    +0.000 C 
ENDBRANCH  39  41
ENDBRANCH   5  39
ENDBRANCH   2   5
BRANCH   1  43
ATOM     43  CA  GLY A   5       5.286  -6.770  12.435  0.00  0.00    +0.176 C 
BRANCH  43  46
ATOM     44  C   GLY A   4       6.926  -8.349  13.100  0.00  0.00    +0.243 C 
ATOM     45  O   GLY A   4       7.105  -7.739  14.142  0.00  0.00    -0.273 OA
ATOM     46  N   GLY A   5       6.120  -7.942  12.167  0.00  0.00    -0.295 N 
ATOM     47  H   GLY A   5       6.069  -8.436  11.253  0.00  0.00    +0.150 HD
BRANCH  44  48
ATOM     48  CA  GLY A   4       7.571  -9.659  12.786  0.00  0.00    +0.176 C 
BRANCH  48  50
ATOM     49  C   ILE A   3       9.906  -9.976  12.918  0.00  0.00    +0.241 C 
ATOM     50  N   GLY A   4       8.768  -9.943  13.563  0.00  0.00    -0.295 N 
ATOM     51  H   GLY A   4       8.721 -10.113  14.588  0.00  0.00    +0.150 HD
ATOM     52  O   ILE A   3      10.004  -9.745  11.722  0.00  0.00    -0.273 OA
BRANCH  49  53
ATOM     53  CA  ILE A   3      11.062 -10.378  13.805  0.00  0.00    +0.149 C 
BRANCH  53  56
ATOM     54  C   MET A   2      12.353 -12.351  13.497  0.00  0.00    +0.241 C 
ATOM     55  O   MET A   2      11.772 -12.855  14.450  0.00  0.00    -0.273 OA
ATOM     56  N   ILE A   3      12.136 -11.102  13.114  0.00  0.00    -0.297 N 
ATOM     57  H   ILE A   3      12.698 -10.656  12.361  0.00  0.00    +0.150 HD
BRANCH  54  58
ATOM     58  CA  MET A   2      13.392 -13.093  12.660  0.00  0.00    +0.149 C 
BRANCH  58  60
ATOM     59  C   LYS A   1      15.718 -13.343  13.198  0.00  0.00    +0.238 C 
ATOM     60  N   MET A   2      14.476 -13.733  13.416  0.00  0.00    -0.297 N 
ATOM     61  H   MET A   2      14.269 -14.479  14.110  0.00  0.00    +0.150 HD
ATOM     62  O   LYS A   1      16.000 -12.602  12.271  0.00  0.00    -0.274 OA
BRANCH  59  63
ATOM     63  CA  LYS A   1      16.767 -13.896  14.163  0.00  0.00    +0.145 C 
BRANCH  63  64
ATOM     64  N   LYS A   1      18.102 -13.890  13.565  0.00  0.00    -0.238 NA
ATOM     65  H   LYS A   1      18.388 -13.180  12.861  0.00  0.00    +0.142 HD
ENDBRANCH  63  64
BRANCH  63  66
ATOM     66  CB  LYS A   1      16.821 -13.076  15.455  0.00  0.00    +0.026 C 
BRANCH  66  67
ATOM     67  CG  LYS A   1      15.645 -13.350  16.377  0.00  0.00    -0.000 C 
BRANCH  67  68
ATOM     68  CD  LYS A   1      15.376 -12.145  17.267  0.00  0.00    -0.024 C 
BRANCH  68  69
ATOM     69  CE  LYS A   1      14.284 -12.446  18.286  0.00  0.00    -0.086 C 
BRANCH  69  70
ATOM     70  NZ  LYS A   1      14.156 -11.275  19.161  0.00  0.00    +0.380 N 
ATOM     71  HZ1 LYS A   1      13.415 -11.452  19.869  0.00  0.00    -0.089 HD
ATOM     72  HZ2 LYS A   1      15.062 -11.102  19.641  0.00  0.00    -0.089 HD
ATOM     73  HZ3 LYS A   1      13.900 -10.444  18.591  0.00  0.00    -0.089 HD
ENDBRANCH  69  70
ENDBRANCH  68  69
ENDBRANCH  67  68
ENDBRANCH  66  67
ENDBRANCH  63  66
ENDBRANCH  59  63
ENDBRANCH  58  60
BRANCH  58  74
ATOM     74  CB  MET A   2      12.712 -14.125  11.756  0.00  0.00    +0.041 C 
BRANCH  74  75
ATOM     75  CG  MET A   2      13.728 -14.406  10.659  0.00  0.00    +0.060 C 
BRANCH  75  76
ATOM     76  SD  MET A   2      13.173 -15.578   9.459  0.00  0.00    -0.139 S 
ATOM     77  CE  MET A   2      11.812 -14.590   8.822  0.00  0.00    +0.069 C 
ENDBRANCH  75  76
ENDBRANCH  74  75
ENDBRANCH  58  74
ENDBRANCH  54  58
ENDBRANCH  53  56
BRANCH  53  78
ATOM     78  CB  ILE A   3      11.575  -9.159  14.583  0.00  0.00    +0.027 C 
ATOM     79  CG2 ILE A   3      12.287  -9.594  15.850  0.00  0.00    +0.002 C 
BRANCH  78  80
ATOM     80  CG1 ILE A   3      12.462  -8.215  13.790  0.00  0.00    +0.002 C 
ATOM     81  CD1 ILE A   3      11.649  -7.023  13.302  0.00  0.00    +0.000 C 
ENDBRANCH  78  80
ENDBRANCH  53  78
ENDBRANCH  49  53
ENDBRANCH  48  50
ENDBRANCH  44  48
ENDBRANCH  43  46
ENDBRANCH   1  43
TORSDOF 36
REMARK  Name = ../refined-set-2016/1hvj/1hvj_pocket.pdb
REMARK  229 active torsions:
REMARK  status: ('A' for Active; 'I' for Inactive)
REMARK    1  A    between atoms: _1  and  _3
REMARK    2  A    between atoms: _3  and  _4
REMARK    3  A    between atoms: _3  and  _6
REMARK    4  A    between atoms: _6  and  _7
REMARK    5  A    between atoms: _7  and  _8
REMARK    6  A    between atoms: _8  and  _9
REMARK    7  A    between atoms: _19  and  _20
REMARK    8  A    between atoms: _25  and  _27
REMARK    9  A    between atoms: _27  and  _28
REMARK   10  A    between atoms: _27  and  _30
REMARK   11  A    between atoms: _30  and  _31
REMARK   12  A    between atoms: _34  and  _36
REMARK   13  A    between atoms: _36  and  _37
REMARK   14  A    between atoms: _36  and  _39
REMARK   15  A    between atoms: _39  and  _40
REMARK   16  A    between atoms: _43  and  _45
REMARK   17  A    between atoms: _45  and  _46
REMARK   18  A    between atoms: _45  and  _48
REMARK   19  A    between atoms: _48  and  _49
REMARK   20  A    between atoms: _52  and  _54
REMARK   21  A    between atoms: _54  and  _55
REMARK   22  A    between atoms: _54  and  _57
REMARK   23  A    between atoms: _57  and  _58
REMARK   24  A    between atoms: _61  and  _63
REMARK   25  A    between atoms: _63  and  _64
REMARK   26  A    between atoms: _63  and  _66
REMARK   27  A    between atoms: _66  and  _67
REMARK   28  A    between atoms: _70  and  _72
REMARK   29  A    between atoms: _72  and  _73
REMARK   30  A    between atoms: _75  and  _77
REMARK   31  A    between atoms: _77  and  _78
REMARK   32  A    between atoms: _81  and  _83
REMARK   33  A    between atoms: _83  and  _84
REMARK   34  A    between atoms: _83  and  _86
REMARK   35  A    between atoms: _86  and  _87
REMARK   36  A    between atoms: _90  and  _92
REMARK   37  A    between atoms: _92  and  _93
REMARK   38  A    between atoms: _92  and  _95
REMARK   39  A    between atoms: _95  and  _96
REMARK   40  A    between atoms: _99  and  _101
REMARK   41  A    between atoms: _101  and  _102
REMARK   42  A    between atoms: _101  and  _104
REMARK   43  A    between atoms: _104  and  _105
REMARK   44  A    between atoms: _108  and  _110
REMARK   45  A    between atoms: _110  and  _111
REMARK   46  A    between atoms: _110  and  _113
REMARK   47  A    between atoms: _116  and  _118
REMARK   48  A    between atoms: _118  and  _119
REMARK   49  A    between atoms: _118  and  _121
REMARK   50  A    between atoms: _121  and  _122
REMARK   51  A    between atoms: _122  and  _123
REMARK   52  A    between atoms: _123  and  _124
REMARK   53  A    between atoms: _124  and  _125
REMARK   54  A    between atoms: _129  and  _131
REMARK   55  A    between atoms: _131  and  _132
REMARK   56  A    between atoms: _131  and  _134
REMARK   57  A    between atoms: _134  and  _135
REMARK   58  A    between atoms: _135  and  _136
REMARK   59  A    between atoms: _138  and  _140
REMARK   60  A    between atoms: _140  and  _141
REMARK   61  A    between atoms: _140  and  _143
REMARK   62  A    between atoms: _143  and  _144
REMARK   63  A    between atoms: _147  and  _149
REMARK   64  A    between atoms: _149  and  _150
REMARK   65  A    between atoms: _152  and  _154
REMARK   66  A    between atoms: _154  and  _155
REMARK   67  A    between atoms: _157  and  _159
REMARK   68  A    between atoms: _159  and  _160
REMARK   69  A    between atoms: _159  and  _162
REMARK   70  A    between atoms: _162  and  _163
REMARK   71  A    between atoms: _166  and  _168
REMARK   72  A    between atoms: _168  and  _169
REMARK   73  A    between atoms: _171  and  _173
REMARK   74  A    between atoms: _173  and  _174
REMARK   75  A    between atoms: _176  and  _178
REMARK   76  A    between atoms: _178  and  _179
REMARK   77  A    between atoms: _178  and  _181
REMARK   78  A    between atoms: _181  and  _182
REMARK   79  A    between atoms: _188  and  _190
REMARK   80  A    between atoms: _190  and  _191
REMARK   81  A    between atoms: _190  and  _193
REMARK   82  A    between atoms: _193  and  _194
REMARK   83  A    between atoms: _197  and  _199
REMARK   84  A    between atoms: _199  and  _200
REMARK   85  A    between atoms: _199  and  _202
REMARK   86  A    between atoms: _202  and  _203
REMARK   87  A    between atoms: _207  and  _208
REMARK   88  A    between atoms: _213  and  _215
REMARK   89  A    between atoms: _215  and  _216
REMARK   90  A    between atoms: _215  and  _218
REMARK   91  A    between atoms: _218  and  _219
REMARK   92  A    between atoms: _223  and  _224
REMARK   93  A    between atoms: _229  and  _231
REMARK   94  A    between atoms: _231  and  _232
REMARK   95  A    between atoms: _231  and  _234
REMARK   96  A    between atoms: _237  and  _239
REMARK   97  A    between atoms: _239  and  _240
REMARK   98  A    between atoms: _239  and  _242
REMARK   99  A    between atoms: _242  and  _243
REMARK  100  A    between atoms: _248  and  _250
REMARK  101  A    between atoms: _250  and  _251
REMARK  102  A    between atoms: _250  and  _253
REMARK  103  A    between atoms: _253  and  _254
REMARK  104  A    between atoms: _257  and  _259
REMARK  105  A    between atoms: _259  and  _260
REMARK  106  A    between atoms: _259  and  _262
REMARK  107  A    between atoms: _262  and  _263
REMARK  108  A    between atoms: _266  and  _268
REMARK  109  A    between atoms: _268  and  _269
REMARK  110  A    between atoms: _271  and  _273
REMARK  111  A    between atoms: _273  and  _274
REMARK  112  A    between atoms: _273  and  _276
REMARK  113  A    between atoms: _276  and  _277
REMARK  114  A    between atoms: _277  and  _278
REMARK  115  A    between atoms: _278  and  _279
REMARK  116  A    between atoms: _288  and  _290
REMARK  117  A    between atoms: _290  and  _291
REMARK  118  A    between atoms: _290  and  _293
REMARK  119  A    between atoms: _293  and  _294
REMARK  120  A    between atoms: _294  and  _295
REMARK  121  A    between atoms: _295  and  _296
REMARK  122  A    between atoms: _305  and  _307
REMARK  123  A    between atoms: _307  and  _308
REMARK  124  A    between atoms: _307  and  _310
REMARK  125  A    between atoms: _310  and  _311
REMARK  126  A    between atoms: _314  and  _316
REMARK  127  A    between atoms: _316  and  _317
REMARK  128  A    between atoms: _316  and  _319
REMARK  129  A    between atoms: _319  and  _320
REMARK  130  A    between atoms: _323  and  _325
REMARK  131  A    between atoms: _325  and  _326
REMARK  132  A    between atoms: _325  and  _328
REMARK  133  A    between atoms: _328  and  _329
REMARK  134  A    between atoms: _332  and  _334
REMARK  135  A    between atoms: _334  and  _335
REMARK  136  A    between atoms: _334  and  _337
REMARK  137  A    between atoms: _337  and  _338
REMARK  138  A    between atoms: _341  and  _343
REMARK  139  A    between atoms: _343  and  _344
REMARK  140  A    between atoms: _343  and  _346
REMARK  141  A    between atoms: _346  and  _347
REMARK  142  A    between atoms: _350  and  _352
REMARK  143  A    between atoms: _352  and  _353
REMARK  144  A    between atoms: _355  and  _357
REMARK  145  A    between atoms: _357  and  _358
REMARK  146  A    between atoms: _361  and  _363
REMARK  147  A    between atoms: _363  and  _364
REMARK  148  A    between atoms: _363  and  _366
REMARK  149  A    between atoms: _366  and  _367
REMARK  150  A    between atoms: _370  and  _372
REMARK  151  A    between atoms: _372  and  _373
REMARK  152  A    between atoms: _372  and  _375
REMARK  153  A    between atoms: _375  and  _376
REMARK  154  A    between atoms: _379  and  _381
REMARK  155  A    between atoms: _381  and  _382
REMARK  156  A    between atoms: _381  and  _384
REMARK  157  A    between atoms: _384  and  _385
REMARK  158  A    between atoms: _388  and  _390
REMARK  159  A    between atoms: _390  and  _391
REMARK  160  A    between atoms: _390  and  _393
REMARK  161  A    between atoms: _396  and  _398
REMARK  162  A    between atoms: _398  and  _399
REMARK  163  A    between atoms: _398  and  _401
REMARK  164  A    between atoms: _401  and  _402
REMARK  165  A    between atoms: _402  and  _403
REMARK  166  A    between atoms: _403  and  _404
REMARK  167  A    between atoms: _404  and  _405
REMARK  168  A    between atoms: _409  and  _411
REMARK  169  A    between atoms: _411  and  _412
REMARK  170  A    between atoms: _411  and  _414
REMARK  171  A    between atoms: _414  and  _415
REMARK  172  A    between atoms: _415  and  _416
REMARK  173  A    between atoms: _418  and  _420
REMARK  174  A    between atoms: _420  and  _421
REMARK  175  A    between atoms: _420  and  _423
REMARK  176  A    between atoms: _423  and  _424
REMARK  177  A    between atoms: _427  and  _429
REMARK  178  A    between atoms: _429  and  _430
REMARK  179  A    between atoms: _432  and  _434
REMARK  180  A    between atoms: _434  and  _435
REMARK  181  A    between atoms: _437  and  _439
REMARK  182  A    between atoms: _439  and  _440
REMARK  183  A    between atoms: _439  and  _442
REMARK  184  A    between atoms: _442  and  _443
REMARK  185  A    between atoms: _446  and  _448
REMARK  186  A    between atoms: _448  and  _449
REMARK  187  A    between atoms: _451  and  _453
REMARK  188  A    between atoms: _453  and  _454
REMARK  189  A    between atoms: _456  and  _458
REMARK  190  A    between atoms: _458  and  _459
REMARK  191  A    between atoms: _458  and  _461
REMARK  192  A    between atoms: _461  and  _462
REMARK  193  A    between atoms: _468  and  _470
REMARK  194  A    between atoms: _470  and  _471
REMARK  195  A    between atoms: _470  and  _473
REMARK  196  A    between atoms: _473  and  _474
REMARK  197  A    between atoms: _477  and  _479
REMARK  198  A    between atoms: _479  and  _480
REMARK  199  A    between atoms: _479  and  _482
REMARK  200  A    between atoms: _482  and  _483
REMARK  201  A    between atoms: _487  and  _488
REMARK  202  A    between atoms: _493  and  _495
REMARK  203  A    between atoms: _495  and  _496
REMARK  204  A    between atoms: _495  and  _498
REMARK  205  A    between atoms: _498  and  _499
REMARK  206  A    between atoms: _503  and  _504
REMARK  207  A    between atoms: _509  and  _511
REMARK  208  A    between atoms: _511  and  _512
REMARK  209  A    between atoms: _511  and  _514
REMARK  210  A    between atoms: _517  and  _519
REMARK  211  A    between atoms: _519  and  _520
REMARK  212  A    between atoms: _519  and  _522
REMARK  213  A    between atoms: _522  and  _523
REMARK  214  A    between atoms: _528  and  _530
REMARK  215  A    between atoms: _530  and  _531
REMARK  216  A    between atoms: _530  and  _533
REMARK  217  A    between atoms: _533  and  _534
REMARK  218  A    between atoms: _537  and  _539
REMARK  219  A    between atoms: _539  and  _540
REMARK  220  A    between atoms: _539  and  _542
REMARK  221  A    between atoms: _542  and  _543
REMARK  222  A    between atoms: _546  and  _548
REMARK  223  A    between atoms: _548  and  _549
REMARK  224  A    between atoms: _551  and  _553
REMARK  225  A    between atoms: _553  and  _554
REMARK  226  A    between atoms: _553  and  _556
REMARK  227  A    between atoms: _556  and  _557
REMARK  228  A    between atoms: _557  and  _558
REMARK  229  A    between atoms: _558  and  _559
REMARK                            x       y       z     vdW  Elec       q    Type
REMARK                         _______ _______ _______ _____ _____    ______ ____
ROOT
ATOM      1  CA  LEU A   1      18.565  -6.262  16.345  0.00  0.00    +0.133 C 
ENDROOT
BRANCH   1   2
ATOM      2  N   LEU A   1      18.636  -5.563  17.633  0.00  0.00    -0.239 NA
ATOM      3  H   LEU A   1      17.873  -4.929  17.945  0.00  0.00    +0.142 HD
ENDBRANCH   1   2
BRANCH   1   4
ATOM      4  C   LEU A   1      18.898  -5.377  15.164  0.00  0.00    +0.224 C 
ATOM      5  O   LEU A   1      18.435  -4.261  15.039  0.00  0.00    -0.287 OA
ENDBRANCH   1   4
BRANCH   1   6
ATOM      6  CB  LEU A   1      17.167  -6.847  16.133  0.00  0.00    +0.025 C 
BRANCH   6   7
ATOM      7  CG  LEU A   1      16.502  -7.444  17.386  0.00  0.00    +0.002 C 
ATOM      8  CD2 LEU A   1      17.241  -8.629  17.997  0.00  0.00    +0.000 C 
ATOM      9  CD1 LEU A   1      15.109  -7.892  17.021  0.00  0.00    +0.000 C 
ENDBRANCH   6   7
ENDBRANCH   1   6
TORSDOF 4
REMARK  Name = ../refined-set-2016/1hvj/1hvj_pocket.pdb
REMARK  229 active torsions:
REMARK  status: ('A' for Active; 'I' for Inactive)
REMARK    1  A    between atoms: _1  and  _3
REMARK    2  A    between atoms: _3  and  _4
REMARK    3  A    between atoms: _3  and  _6
REMARK    4  A    between atoms: _6  and  _7
REMARK    5  A    between atoms: _7  and  _8
REMARK    6  A    between atoms: _8  and  _9
REMARK    7  A    between atoms: _19  and  _20
REMARK    8  A    between atoms: _25  and  _27
REMARK    9  A    between atoms: _27  and  _28
REMARK   10  A    between atoms: _27  and  _30
REMARK   11  A    between atoms: _30  and  _31
REMARK   12  A    between atoms: _34  and  _36
REMARK   13  A    between atoms: _36  and  _37
REMARK   14  A    between atoms: _36  and  _39
REMARK   15  A    between atoms: _39  and  _40
REMARK   16  A    between atoms: _43  and  _45
REMARK   17  A    between atoms: _45  and  _46
REMARK   18  A    between atoms: _45  and  _48
REMARK   19  A    between atoms: _48  and  _49
REMARK   20  A    between atoms: _52  and  _54
REMARK   21  A    between atoms: _54  and  _55
REMARK   22  A    between atoms: _54  and  _57
REMARK   23  A    between atoms: _57  and  _58
REMARK   24  A    between atoms: _61  and  _63
REMARK   25  A    between atoms: _63  and  _64
REMARK   26  A    between atoms: _63  and  _66
REMARK   27  A    between atoms: _66  and  _67
REMARK   28  A    between atoms: _70  and  _72
REMARK   29  A    between atoms: _72  and  _73
REMARK   30  A    between atoms: _75  and  _77
REMARK   31  A    between atoms: _77  and  _78
REMARK   32  A    between atoms: _81  and  _83
REMARK   33  A    between atoms: _83  and  _84
REMARK   34  A    between atoms: _83  and  _86
REMARK   35  A    between atoms: _86  and  _87
REMARK   36  A    between atoms: _90  and  _92
REMARK   37  A    between atoms: _92  and  _93
REMARK   38  A    between atoms: _92  and  _95
REMARK   39  A    between atoms: _95  and  _96
REMARK   40  A    between atoms: _99  and  _101
REMARK   41  A    between atoms: _101  and  _102
REMARK   42  A    between atoms: _101  and  _104
REMARK   43  A    between atoms: _104  and  _105
REMARK   44  A    between atoms: _108  and  _110
REMARK   45  A    between atoms: _110  and  _111
REMARK   46  A    between atoms: _110  and  _113
REMARK   47  A    between atoms: _116  and  _118
REMARK   48  A    between atoms: _118  and  _119
REMARK   49  A    between atoms: _118  and  _121
REMARK   50  A    between atoms: _121  and  _122
REMARK   51  A    between atoms: _122  and  _123
REMARK   52  A    between atoms: _123  and  _124
REMARK   53  A    between atoms: _124  and  _125
REMARK   54  A    between atoms: _129  and  _131
REMARK   55  A    between atoms: _131  and  _132
REMARK   56  A    between atoms: _131  and  _134
REMARK   57  A    between atoms: _134  and  _135
REMARK   58  A    between atoms: _135  and  _136
REMARK   59  A    between atoms: _138  and  _140
REMARK   60  A    between atoms: _140  and  _141
REMARK   61  A    between atoms: _140  and  _143
REMARK   62  A    between atoms: _143  and  _144
REMARK   63  A    between atoms: _147  and  _149
REMARK   64  A    between atoms: _149  and  _150
REMARK   65  A    between atoms: _152  and  _154
REMARK   66  A    between atoms: _154  and  _155
REMARK   67  A    between atoms: _157  and  _159
REMARK   68  A    between atoms: _159  and  _160
REMARK   69  A    between atoms: _159  and  _162
REMARK   70  A    between atoms: _162  and  _163
REMARK   71  A    between atoms: _166  and  _168
REMARK   72  A    between atoms: _168  and  _169
REMARK   73  A    between atoms: _171  and  _173
REMARK   74  A    between atoms: _173  and  _174
REMARK   75  A    between atoms: _176  and  _178
REMARK   76  A    between atoms: _178  and  _179
REMARK   77  A    between atoms: _178  and  _181
REMARK   78  A    between atoms: _181  and  _182
REMARK   79  A    between atoms: _188  and  _190
REMARK   80  A    between atoms: _190  and  _191
REMARK   81  A    between atoms: _190  and  _193
REMARK   82  A    between atoms: _193  and  _194
REMARK   83  A    between atoms: _197  and  _199
REMARK   84  A    between atoms: _199  and  _200
REMARK   85  A    between atoms: _199  and  _202
REMARK   86  A    between atoms: _202  and  _203
REMARK   87  A    between atoms: _207  and  _208
REMARK   88  A    between atoms: _213  and  _215
REMARK   89  A    between atoms: _215  and  _216
REMARK   90  A    between atoms: _215  and  _218
REMARK   91  A    between atoms: _218  and  _219
REMARK   92  A    between atoms: _223  and  _224
REMARK   93  A    between atoms: _229  and  _231
REMARK   94  A    between atoms: _231  and  _232
REMARK   95  A    between atoms: _231  and  _234
REMARK   96  A    between atoms: _237  and  _239
REMARK   97  A    between atoms: _239  and  _240
REMARK   98  A    between atoms: _239  and  _242
REMARK   99  A    between atoms: _242  and  _243
REMARK  100  A    between atoms: _248  and  _250
REMARK  101  A    between atoms: _250  and  _251
REMARK  102  A    between atoms: _250  and  _253
REMARK  103  A    between atoms: _253  and  _254
REMARK  104  A    between atoms: _257  and  _259
REMARK  105  A    between atoms: _259  and  _260
REMARK  106  A    between atoms: _259  and  _262
REMARK  107  A    between atoms: _262  and  _263
REMARK  108  A    between atoms: _266  and  _268
REMARK  109  A    between atoms: _268  and  _269
REMARK  110  A    between atoms: _271  and  _273
REMARK  111  A    between atoms: _273  and  _274
REMARK  112  A    between atoms: _273  and  _276
REMARK  113  A    between atoms: _276  and  _277
REMARK  114  A    between atoms: _277  and  _278
REMARK  115  A    between atoms: _278  and  _279
REMARK  116  A    between atoms: _288  and  _290
REMARK  117  A    between atoms: _290  and  _291
REMARK  118  A    between atoms: _290  and  _293
REMARK  119  A    between atoms: _293  and  _294
REMARK  120  A    between atoms: _294  and  _295
REMARK  121  A    between atoms: _295  and  _296
REMARK  122  A    between atoms: _305  and  _307
REMARK  123  A    between atoms: _307  and  _308
REMARK  124  A    between atoms: _307  and  _310
REMARK  125  A    between atoms: _310  and  _311
REMARK  126  A    between atoms: _314  and  _316
REMARK  127  A    between atoms: _316  and  _317
REMARK  128  A    between atoms: _316  and  _319
REMARK  129  A    between atoms: _319  and  _320
REMARK  130  A    between atoms: _323  and  _325
REMARK  131  A    between atoms: _325  and  _326
REMARK  132  A    between atoms: _325  and  _328
REMARK  133  A    between atoms: _328  and  _329
REMARK  134  A    between atoms: _332  and  _334
REMARK  135  A    between atoms: _334  and  _335
REMARK  136  A    between atoms: _334  and  _337
REMARK  137  A    between atoms: _337  and  _338
REMARK  138  A    between atoms: _341  and  _343
REMARK  139  A    between atoms: _343  and  _344
REMARK  140  A    between atoms: _343  and  _346
REMARK  141  A    between atoms: _346  and  _347
REMARK  142  A    between atoms: _350  and  _352
REMARK  143  A    between atoms: _352  and  _353
REMARK  144  A    between atoms: _355  and  _357
REMARK  145  A    between atoms: _357  and  _358
REMARK  146  A    between atoms: _361  and  _363
REMARK  147  A    between atoms: _363  and  _364
REMARK  148  A    between atoms: _363  and  _366
REMARK  149  A    between atoms: _366  and  _367
REMARK  150  A    between atoms: _370  and  _372
REMARK  151  A    between atoms: _372  and  _373
REMARK  152  A    between atoms: _372  and  _375
REMARK  153  A    between atoms: _375  and  _376
REMARK  154  A    between atoms: _379  and  _381
REMARK  155  A    between atoms: _381  and  _382
REMARK  156  A    between atoms: _381  and  _384
REMARK  157  A    between atoms: _384  and  _385
REMARK  158  A    between atoms: _388  and  _390
REMARK  159  A    between atoms: _390  and  _391
REMARK  160  A    between atoms: _390  and  _393
REMARK  161  A    between atoms: _396  and  _398
REMARK  162  A    between atoms: _398  and  _399
REMARK  163  A    between atoms: _398  and  _401
REMARK  164  A    between atoms: _401  and  _402
REMARK  165  A    between atoms: _402  and  _403
REMARK  166  A    between atoms: _403  and  _404
REMARK  167  A    between atoms: _404  and  _405
REMARK  168  A    between atoms: _409  and  _411
REMARK  169  A    between atoms: _411  and  _412
REMARK  170  A    between atoms: _411  and  _414
REMARK  171  A    between atoms: _414  and  _415
REMARK  172  A    between atoms: _415  and  _416
REMARK  173  A    between atoms: _418  and  _420
REMARK  174  A    between atoms: _420  and  _421
REMARK  175  A    between atoms: _420  and  _423
REMARK  176  A    between atoms: _423  and  _424
REMARK  177  A    between atoms: _427  and  _429
REMARK  178  A    between atoms: _429  and  _430
REMARK  179  A    between atoms: _432  and  _434
REMARK  180  A    between atoms: _434  and  _435
REMARK  181  A    between atoms: _437  and  _439
REMARK  182  A    between atoms: _439  and  _440
REMARK  183  A    between atoms: _439  and  _442
REMARK  184  A    between atoms: _442  and  _443
REMARK  185  A    between atoms: _446  and  _448
REMARK  186  A    between atoms: _448  and  _449
REMARK  187  A    between atoms: _451  and  _453
REMARK  188  A    between atoms: _453  and  _454
REMARK  189  A    between atoms: _456  and  _458
REMARK  190  A    between atoms: _458  and  _459
REMARK  191  A    between atoms: _458  and  _461
REMARK  192  A    between atoms: _461  and  _462
REMARK  193  A    between atoms: _468  and  _470
REMARK  194  A    between atoms: _470  and  _471
REMARK  195  A    between atoms: _470  and  _473
REMARK  196  A    between atoms: _473  and  _474
REMARK  197  A    between atoms: _477  and  _479
REMARK  198  A    between atoms: _479  and  _480
REMARK  199  A    between atoms: _479  and  _482
REMARK  200  A    between atoms: _482  and  _483
REMARK  201  A    between atoms: _487  and  _488
REMARK  202  A    between atoms: _493  and  _495
REMARK  203  A    between atoms: _495  and  _496
REMARK  204  A    between atoms: _495  and  _498
REMARK  205  A    between atoms: _498  and  _499
REMARK  206  A    between atoms: _503  and  _504
REMARK  207  A    between atoms: _509  and  _511
REMARK  208  A    between atoms: _511  and  _512
REMARK  209  A    between atoms: _511  and  _514
REMARK  210  A    between atoms: _517  and  _519
REMARK  211  A    between atoms: _519  and  _520
REMARK  212  A    between atoms: _519  and  _522
REMARK  213  A    between atoms: _522  and  _523
REMARK  214  A    between atoms: _528  and  _530
REMARK  215  A    between atoms: _530  and  _531
REMARK  216  A    between atoms: _530  and  _533
REMARK  217  A    between atoms: _533  and  _534
REMARK  218  A    between atoms: _537  and  _539
REMARK  219  A    between atoms: _539  and  _540
REMARK  220  A    between atoms: _539  and  _542
REMARK  221  A    between atoms: _542  and  _543
REMARK  222  A    between atoms: _546  and  _548
REMARK  223  A    between atoms: _548  and  _549
REMARK  224  A    between atoms: _551  and  _553
REMARK  225  A    between atoms: _553  and  _554
REMARK  226  A    between atoms: _553  and  _556
REMARK  227  A    between atoms: _556  and  _557
REMARK  228  A    between atoms: _557  and  _558
REMARK  229  A    between atoms: _558  and  _559
REMARK                            x       y       z     vdW  Elec       q    Type
REMARK                         _______ _______ _______ _____ _____    ______ ____
ROOT
ATOM      1  C   ASN A   5      14.531   3.100  15.066  0.00  0.00    +0.241 C 
ATOM      2  N   ILE A   6      14.378   1.980  15.742  0.00  0.00    -0.297 N 
ATOM      3  H   ILE A   6      15.029   1.189  15.565  0.00  0.00    +0.150 HD
ATOM      4  O   ASN A   5      13.847   4.085  15.257  0.00  0.00    -0.273 OA
ENDROOT
BRANCH   2   5
ATOM      5  CA  ILE A   6      13.316   1.819  16.736  0.00  0.00    +0.149 C 
BRANCH   5   6
ATOM      6  C   ILE A   6      13.855   1.496  18.128  0.00  0.00    +0.241 C 
ATOM      7  N   ILE A   7      13.530   2.364  19.069  0.00  0.00    -0.297 N 
ATOM      8  H   ILE A   7      13.098   3.283  18.845  0.00  0.00    +0.150 HD
ATOM      9  O   ILE A   6      14.513   0.495  18.361  0.00  0.00    -0.273 OA
BRANCH   7  10
ATOM     10  CA  ILE A   7      13.813   1.957  20.445  0.00  0.00    +0.149 C 
BRANCH  10  11
ATOM     11  C   ILE A   7      12.578   1.372  21.135  0.00  0.00    +0.241 C 
ATOM     12  N   GLY A   8      12.720   0.110  21.483  0.00  0.00    -0.295 N 
ATOM     13  H   GLY A   8      13.615  -0.379  21.278  0.00  0.00    +0.150 HD
ATOM     14  O   ILE A   7      11.558   2.005  21.337  0.00  0.00    -0.273 OA
BRANCH  12  15
ATOM     15  CA  GLY A   8      11.646  -0.612  22.149  0.00  0.00    +0.176 C 
BRANCH  15  16
ATOM     16  C   GLY A   8      11.741  -0.699  23.656  0.00  0.00    +0.243 C 
ATOM     17  O   GLY A   8      12.644  -0.194  24.315  0.00  0.00    -0.273 OA
ATOM     18  N   ARG A   9      10.748  -1.383  24.207  0.00  0.00    -0.298 N 
ATOM     19  H   ARG A   9      10.057  -1.877  23.607  0.00  0.00    +0.150 HD
BRANCH  18  20
ATOM     20  CA  ARG A   9      10.629  -1.440  25.673  0.00  0.00    +0.137 C 
BRANCH  20  21
ATOM     21  C   ARG A   9      11.810  -1.986  26.476  0.00  0.00    +0.227 C 
ATOM     22  O   ARG A   9      12.132  -1.554  27.575  0.00  0.00    -0.286 OA
ENDBRANCH  20  21
BRANCH  20  23
ATOM     23  CB  ARG A   9       9.392  -2.250  26.062  0.00  0.00    +0.031 C 
BRANCH  23  24
ATOM     24  CG  ARG A   9       8.043  -1.732  25.531  0.00  0.00    +0.045 C 
BRANCH  24  25
ATOM     25  CD  ARG A   9       6.863  -2.466  26.185  0.00  0.00    +0.174 C 
BRANCH  25  26
ATOM     26  NE  ARG A   9       6.756  -3.859  25.743  0.00  0.00    -0.265 N 
ATOM     27  CZ  ARG A   9       7.232  -4.874  26.463  0.00  0.00    +0.342 C 
ATOM     28  NH2 ARG A   9       7.712  -4.694  27.686  0.00  0.00    -0.292 N 
ATOM     29 HH21 ARG A   9       8.077  -5.504  28.226  0.00  0.00    +0.255 HD
ATOM     30 HH22 ARG A   9       7.723  -3.742  28.105  0.00  0.00    +0.255 HD
ATOM     31  NH1 ARG A   9       7.270  -6.082  25.927  0.00  0.00    -0.292 N 
ATOM     32 HH11 ARG A   9       7.639  -6.884  26.477  0.00  0.00    +0.255 HD
ATOM     33 HH12 ARG A   9       6.931  -6.231  24.955  0.00  0.00    +0.255 HD
ATOM     34  HE  ARG A   9       6.292  -4.063  24.835  0.00  0.00    +0.259 HD
ENDBRANCH  25  26
ENDBRANCH  24  25
ENDBRANCH  23  24
ENDBRANCH  20  23
ENDBRANCH  18  20
ENDBRANCH  15  16
ENDBRANCH  12  15
ENDBRANCH  10  11
BRANCH  10  35
ATOM     35  CB  ILE A   7      14.397   3.130  21.275  0.00  0.00    +0.027 C 
ATOM     36  CG2 ILE A   7      14.859   2.670  22.660  0.00  0.00    +0.002 C 
BRANCH  35  37
ATOM     37  CG1 ILE A   7      15.540   3.911  20.617  0.00  0.00    +0.002 C 
ATOM     38  CD1 ILE A   7      16.784   3.069  20.348  0.00  0.00    +0.000 C 
ENDBRANCH  35  37
ENDBRANCH  10  35
ENDBRANCH   7  10
ENDBRANCH   5   6
BRANCH   5  39
ATOM     39  CB  ILE A   6      12.430   0.675  16.245  0.00  0.00    +0.027 C 
ATOM     40  CG2 ILE A   6      11.305   0.267  17.204  0.00  0.00    +0.002 C 
BRANCH  39  41
ATOM     41  CG1 ILE A   6      11.794   1.025  14.910  0.00  0.00    +0.002 C 
ATOM     42  CD1 ILE A   6      11.155  -0.190  14.253  0.00  0.00    +0.000 C 
ENDBRANCH  39  41
ENDBRANCH   5  39
ENDBRANCH   2   5
BRANCH   1  43
ATOM     43  CA  ASN A   5      15.621   3.076  14.001  0.00  0.00    +0.158 C 
BRANCH  43  45
ATOM     44  C   VAL A   4      14.347   2.899  12.020  0.00  0.00    +0.241 C 
ATOM     45  N   ASN A   5      15.182   3.640  12.721  0.00  0.00    -0.297 N 
ATOM     46  H   ASN A   5      15.510   4.569  12.386  0.00  0.00    +0.150 HD
ATOM     47  O   VAL A   4      14.170   1.724  12.303  0.00  0.00    -0.273 OA
BRANCH  44  48
ATOM     48  CA  VAL A   4      13.629   3.598  10.843  0.00  0.00    +0.149 C 
BRANCH  48  50
ATOM     49  C   PRO A   3      13.907   3.083   8.483  0.00  0.00    +0.241 C 
ATOM     50  N   VAL A   4      13.458   2.728   9.678  0.00  0.00    -0.297 N 
ATOM     51  H   VAL A   4      12.975   1.814   9.791  0.00  0.00    +0.150 HD
ATOM     52  O   PRO A   3      14.540   4.112   8.279  0.00  0.00    -0.273 OA
BRANCH  49  59
ATOM     53  C   THR A   2      14.640   0.063   8.249  0.00  0.00    +0.246 C 
ATOM     54  O   THR A   2      15.731   0.624   8.245  0.00  0.00    -0.273 OA
ATOM     55  N   PRO A   3      13.510   0.661   7.815  0.00  0.00    -0.272 N 
ATOM     56  CD  PRO A   3      12.198   0.047   7.675  0.00  0.00    +0.094 C 
ATOM     57  CG  PRO A   3      11.449   0.991   6.757  0.00  0.00    +0.024 C 
ATOM     58  CB  PRO A   3      12.047   2.346   7.073  0.00  0.00    +0.031 C 
ATOM     59  CA  PRO A   3      13.510   2.081   7.401  0.00  0.00    +0.152 C 
BRANCH  53  60
ATOM     60  CA  THR A   2      14.503  -1.385   8.765  0.00  0.00    +0.176 C 
BRANCH  60  62
ATOM     61  C   PRO A   1      15.688  -2.738   7.070  0.00  0.00    +0.239 C 
ATOM     62  N   THR A   2      15.567  -2.357   8.352  0.00  0.00    -0.295 N 
ATOM     63  H   THR A   2      16.219  -2.740   9.066  0.00  0.00    +0.150 HD
ATOM     64  O   PRO A   1      14.913  -2.343   6.207  0.00  0.00    -0.274 OA
BRANCH  61  69
ATOM     65  N   PRO A   1      17.313  -4.650   7.737  0.00  0.00    -0.210 NA
ATOM     66  CD  PRO A   1      17.044  -6.038   7.370  0.00  0.00    +0.089 C 
ATOM     67  CG  PRO A   1      16.096  -5.916   6.175  0.00  0.00    +0.021 C 
ATOM     68  CB  PRO A   1      16.558  -4.614   5.527  0.00  0.00    +0.028 C 
ATOM     69  CA  PRO A   1      16.866  -3.674   6.717  0.00  0.00    +0.149 C 
ENDBRANCH  61  69
ENDBRANCH  60  62
BRANCH  60  70
ATOM     70  CB  THR A   2      14.381  -1.333  10.312  0.00  0.00    +0.137 C 
ATOM     71  CG2 THR A   2      15.658  -0.928  11.033  0.00  0.00    +0.034 C 
BRANCH  70  72
ATOM     72  OG1 THR A   2      13.363  -0.415  10.702  0.00  0.00    -0.382 OA
ATOM     73  HG1 THR A   2      13.589   0.489  10.366  0.00  0.00    +0.210 HD
ENDBRANCH  70  72
ENDBRANCH  60  70
ENDBRANCH  53  60
ENDBRANCH  49  59
ENDBRANCH  48  50
BRANCH  48  74
ATOM     74  CB  VAL A   4      12.198   4.099  11.183  0.00  0.00    +0.027 C 
ATOM     75  CG2 VAL A   4      12.136   5.074  12.356  0.00  0.00    +0.002 C 
ATOM     76  CG1 VAL A   4      11.246   2.928  11.386  0.00  0.00    +0.002 C 
ENDBRANCH  48  74
ENDBRANCH  44  48
ENDBRANCH  43  45
BRANCH  43  77
ATOM     77  CB  ASN A   5      16.821   3.848  14.542  0.00  0.00    +0.114 C 
BRANCH  77  78
ATOM     78  CG  ASN A   5      17.954   3.744  13.566  0.00  0.00    +0.222 C 
ATOM     79  OD1 ASN A   5      18.481   2.696  13.286  0.00  0.00    -0.275 OA
ATOM     80  ND2 ASN A   5      18.326   4.857  13.002  0.00  0.00    -0.329 N 
ATOM     81 HD21 ASN A   5      17.859   5.751  13.257  0.00  0.00    +0.145 HD
ATOM     82 HD22 ASN A   5      19.090   4.852  12.296  0.00  0.00    +0.145 HD
ENDBRANCH  77  78
ENDBRANCH  43  77
ENDBRANCH   1  43
TORSDOF 29
REMARK  Name = ../refined-set-2016/1hvj/1hvj_pocket.pdb
REMARK  229 active torsions:
REMARK  status: ('A' for Active; 'I' for Inactive)
REMARK    1  A    between atoms: _1  and  _3
REMARK    2  A    between atoms: _3  and  _4
REMARK    3  A    between atoms: _3  and  _6
REMARK    4  A    between atoms: _6  and  _7
REMARK    5  A    between atoms: _7  and  _8
REMARK    6  A    between atoms: _8  and  _9
REMARK    7  A    between atoms: _19  and  _20
REMARK    8  A    between atoms: _25  and  _27
REMARK    9  A    between atoms: _27  and  _28
REMARK   10  A    between atoms: _27  and  _30
REMARK   11  A    between atoms: _30  and  _31
REMARK   12  A    between atoms: _34  and  _36
REMARK   13  A    between atoms: _36  and  _37
REMARK   14  A    between atoms: _36  and  _39
REMARK   15  A    between atoms: _39  and  _40
REMARK   16  A    between atoms: _43  and  _45
REMARK   17  A    between atoms: _45  and  _46
REMARK   18  A    between atoms: _45  and  _48
REMARK   19  A    between atoms: _48  and  _49
REMARK   20  A    between atoms: _52  and  _54
REMARK   21  A    between atoms: _54  and  _55
REMARK   22  A    between atoms: _54  and  _57
REMARK   23  A    between atoms: _57  and  _58
REMARK   24  A    between atoms: _61  and  _63
REMARK   25  A    between atoms: _63  and  _64
REMARK   26  A    between atoms: _63  and  _66
REMARK   27  A    between atoms: _66  and  _67
REMARK   28  A    between atoms: _70  and  _72
REMARK   29  A    between atoms: _72  and  _73
REMARK   30  A    between atoms: _75  and  _77
REMARK   31  A    between atoms: _77  and  _78
REMARK   32  A    between atoms: _81  and  _83
REMARK   33  A    between atoms: _83  and  _84
REMARK   34  A    between atoms: _83  and  _86
REMARK   35  A    between atoms: _86  and  _87
REMARK   36  A    between atoms: _90  and  _92
REMARK   37  A    between atoms: _92  and  _93
REMARK   38  A    between atoms: _92  and  _95
REMARK   39  A    between atoms: _95  and  _96
REMARK   40  A    between atoms: _99  and  _101
REMARK   41  A    between atoms: _101  and  _102
REMARK   42  A    between atoms: _101  and  _104
REMARK   43  A    between atoms: _104  and  _105
REMARK   44  A    between atoms: _108  and  _110
REMARK   45  A    between atoms: _110  and  _111
REMARK   46  A    between atoms: _110  and  _113
REMARK   47  A    between atoms: _116  and  _118
REMARK   48  A    between atoms: _118  and  _119
REMARK   49  A    between atoms: _118  and  _121
REMARK   50  A    between atoms: _121  and  _122
REMARK   51  A    between atoms: _122  and  _123
REMARK   52  A    between atoms: _123  and  _124
REMARK   53  A    between atoms: _124  and  _125
REMARK   54  A    between atoms: _129  and  _131
REMARK   55  A    between atoms: _131  and  _132
REMARK   56  A    between atoms: _131  and  _134
REMARK   57  A    between atoms: _134  and  _135
REMARK   58  A    between atoms: _135  and  _136
REMARK   59  A    between atoms: _138  and  _140
REMARK   60  A    between atoms: _140  and  _141
REMARK   61  A    between atoms: _140  and  _143
REMARK   62  A    between atoms: _143  and  _144
REMARK   63  A    between atoms: _147  and  _149
REMARK   64  A    between atoms: _149  and  _150
REMARK   65  A    between atoms: _152  and  _154
REMARK   66  A    between atoms: _154  and  _155
REMARK   67  A    between atoms: _157  and  _159
REMARK   68  A    between atoms: _159  and  _160
REMARK   69  A    between atoms: _159  and  _162
REMARK   70  A    between atoms: _162  and  _163
REMARK   71  A    between atoms: _166  and  _168
REMARK   72  A    between atoms: _168  and  _169
REMARK   73  A    between atoms: _171  and  _173
REMARK   74  A    between atoms: _173  and  _174
REMARK   75  A    between atoms: _176  and  _178
REMARK   76  A    between atoms: _178  and  _179
REMARK   77  A    between atoms: _178  and  _181
REMARK   78  A    between atoms: _181  and  _182
REMARK   79  A    between atoms: _188  and  _190
REMARK   80  A    between atoms: _190  and  _191
REMARK   81  A    between atoms: _190  and  _193
REMARK   82  A    between atoms: _193  and  _194
REMARK   83  A    between atoms: _197  and  _199
REMARK   84  A    between atoms: _199  and  _200
REMARK   85  A    between atoms: _199  and  _202
REMARK   86  A    between atoms: _202  and  _203
REMARK   87  A    between atoms: _207  and  _208
REMARK   88  A    between atoms: _213  and  _215
REMARK   89  A    between atoms: _215  and  _216
REMARK   90  A    between atoms: _215  and  _218
REMARK   91  A    between atoms: _218  and  _219
REMARK   92  A    between atoms: _223  and  _224
REMARK   93  A    between atoms: _229  and  _231
REMARK   94  A    between atoms: _231  and  _232
REMARK   95  A    between atoms: _231  and  _234
REMARK   96  A    between atoms: _237  and  _239
REMARK   97  A    between atoms: _239  and  _240
REMARK   98  A    between atoms: _239  and  _242
REMARK   99  A    between atoms: _242  and  _243
REMARK  100  A    between atoms: _248  and  _250
REMARK  101  A    between atoms: _250  and  _251
REMARK  102  A    between atoms: _250  and  _253
REMARK  103  A    between atoms: _253  and  _254
REMARK  104  A    between atoms: _257  and  _259
REMARK  105  A    between atoms: _259  and  _260
REMARK  106  A    between atoms: _259  and  _262
REMARK  107  A    between atoms: _262  and  _263
REMARK  108  A    between atoms: _266  and  _268
REMARK  109  A    between atoms: _268  and  _269
REMARK  110  A    between atoms: _271  and  _273
REMARK  111  A    between atoms: _273  and  _274
REMARK  112  A    between atoms: _273  and  _276
REMARK  113  A    between atoms: _276  and  _277
REMARK  114  A    between atoms: _277  and  _278
REMARK  115  A    between atoms: _278  and  _279
REMARK  116  A    between atoms: _288  and  _290
REMARK  117  A    between atoms: _290  and  _291
REMARK  118  A    between atoms: _290  and  _293
REMARK  119  A    between atoms: _293  and  _294
REMARK  120  A    between atoms: _294  and  _295
REMARK  121  A    between atoms: _295  and  _296
REMARK  122  A    between atoms: _305  and  _307
REMARK  123  A    between atoms: _307  and  _308
REMARK  124  A    between atoms: _307  and  _310
REMARK  125  A    between atoms: _310  and  _311
REMARK  126  A    between atoms: _314  and  _316
REMARK  127  A    between atoms: _316  and  _317
REMARK  128  A    between atoms: _316  and  _319
REMARK  129  A    between atoms: _319  and  _320
REMARK  130  A    between atoms: _323  and  _325
REMARK  131  A    between atoms: _325  and  _326
REMARK  132  A    between atoms: _325  and  _328
REMARK  133  A    between atoms: _328  and  _329
REMARK  134  A    between atoms: _332  and  _334
REMARK  135  A    between atoms: _334  and  _335
REMARK  136  A    between atoms: _334  and  _337
REMARK  137  A    between atoms: _337  and  _338
REMARK  138  A    between atoms: _341  and  _343
REMARK  139  A    between atoms: _343  and  _344
REMARK  140  A    between atoms: _343  and  _346
REMARK  141  A    between atoms: _346  and  _347
REMARK  142  A    between atoms: _350  and  _352
REMARK  143  A    between atoms: _352  and  _353
REMARK  144  A    between atoms: _355  and  _357
REMARK  145  A    between atoms: _357  and  _358
REMARK  146  A    between atoms: _361  and  _363
REMARK  147  A    between atoms: _363  and  _364
REMARK  148  A    between atoms: _363  and  _366
REMARK  149  A    between atoms: _366  and  _367
REMARK  150  A    between atoms: _370  and  _372
REMARK  151  A    between atoms: _372  and  _373
REMARK  152  A    between atoms: _372  and  _375
REMARK  153  A    between atoms: _375  and  _376
REMARK  154  A    between atoms: _379  and  _381
REMARK  155  A    between atoms: _381  and  _382
REMARK  156  A    between atoms: _381  and  _384
REMARK  157  A    between atoms: _384  and  _385
REMARK  158  A    between atoms: _388  and  _390
REMARK  159  A    between atoms: _390  and  _391
REMARK  160  A    between atoms: _390  and  _393
REMARK  161  A    between atoms: _396  and  _398
REMARK  162  A    between atoms: _398  and  _399
REMARK  163  A    between atoms: _398  and  _401
REMARK  164  A    between atoms: _401  and  _402
REMARK  165  A    between atoms: _402  and  _403
REMARK  166  A    between atoms: _403  and  _404
REMARK  167  A    between atoms: _404  and  _405
REMARK  168  A    between atoms: _409  and  _411
REMARK  169  A    between atoms: _411  and  _412
REMARK  170  A    between atoms: _411  and  _414
REMARK  171  A    between atoms: _414  and  _415
REMARK  172  A    between atoms: _415  and  _416
REMARK  173  A    between atoms: _418  and  _420
REMARK  174  A    between atoms: _420  and  _421
REMARK  175  A    between atoms: _420  and  _423
REMARK  176  A    between atoms: _423  and  _424
REMARK  177  A    between atoms: _427  and  _429
REMARK  178  A    between atoms: _429  and  _430
REMARK  179  A    between atoms: _432  and  _434
REMARK  180  A    between atoms: _434  and  _435
REMARK  181  A    between atoms: _437  and  _439
REMARK  182  A    between atoms: _439  and  _440
REMARK  183  A    between atoms: _439  and  _442
REMARK  184  A    between atoms: _442  and  _443
REMARK  185  A    between atoms: _446  and  _448
REMARK  186  A    between atoms: _448  and  _449
REMARK  187  A    between atoms: _451  and  _453
REMARK  188  A    between atoms: _453  and  _454
REMARK  189  A    between atoms: _456  and  _458
REMARK  190  A    between atoms: _458  and  _459
REMARK  191  A    between atoms: _458  and  _461
REMARK  192  A    between atoms: _461  and  _462
REMARK  193  A    between atoms: _468  and  _470
REMARK  194  A    between atoms: _470  and  _471
REMARK  195  A    between atoms: _470  and  _473
REMARK  196  A    between atoms: _473  and  _474
REMARK  197  A    between atoms: _477  and  _479
REMARK  198  A    between atoms: _479  and  _480
REMARK  199  A    between atoms: _479  and  _482
REMARK  200  A    between atoms: _482  and  _483
REMARK  201  A    between atoms: _487  and  _488
REMARK  202  A    between atoms: _493  and  _495
REMARK  203  A    between atoms: _495  and  _496
REMARK  204  A    between atoms: _495  and  _498
REMARK  205  A    between atoms: _498  and  _499
REMARK  206  A    between atoms: _503  and  _504
REMARK  207  A    between atoms: _509  and  _511
REMARK  208  A    between atoms: _511  and  _512
REMARK  209  A    between atoms: _511  and  _514
REMARK  210  A    between atoms: _517  and  _519
REMARK  211  A    between atoms: _519  and  _520
REMARK  212  A    between atoms: _519  and  _522
REMARK  213  A    between atoms: _522  and  _523
REMARK  214  A    between atoms: _528  and  _530
REMARK  215  A    between atoms: _530  and  _531
REMARK  216  A    between atoms: _530  and  _533
REMARK  217  A    between atoms: _533  and  _534
REMARK  218  A    between atoms: _537  and  _539
REMARK  219  A    between atoms: _539  and  _540
REMARK  220  A    between atoms: _539  and  _542
REMARK  221  A    between atoms: _542  and  _543
REMARK  222  A    between atoms: _546  and  _548
REMARK  223  A    between atoms: _548  and  _549
REMARK  224  A    between atoms: _551  and  _553
REMARK  225  A    between atoms: _553  and  _554
REMARK  226  A    between atoms: _553  and  _556
REMARK  227  A    between atoms: _556  and  _557
REMARK  228  A    between atoms: _557  and  _558
REMARK  229  A    between atoms: _558  and  _559
REMARK                            x       y       z     vdW  Elec       q    Type
REMARK                         _______ _______ _______ _____ _____    ______ ____
ROOT
ATOM      1  O   HOH     1       5.181  -3.187  11.959  0.00  0.00    +0.000 OA
ENDROOT
TORSDOF 0
