REMARK  Name = ../refined-set-2016/2avq/2avq_pocket.pdb
REMARK  236 active torsions:
REMARK  status: ('A' for Active; 'I' for Inactive)
REMARK    1  A    between atoms: _1  and  _3
REMARK    2  A    between atoms: _3  and  _4
REMARK    3  A    between atoms: _3  and  _6
REMARK    4  A    between atoms: _6  and  _7
REMARK    5  A    between atoms: _7  and  _8
REMARK    6  A    between atoms: _8  and  _9
REMARK    7  A    between atoms: _18  and  _20
REMARK    8  A    between atoms: _20  and  _21
REMARK    9  A    between atoms: _20  and  _23
REMARK   10  A    between atoms: _23  and  _24
REMARK   11  A    between atoms: _27  and  _29
REMARK   12  A    between atoms: _29  and  _30
REMARK   13  A    between atoms: _29  and  _32
REMARK   14  A    between atoms: _32  and  _33
REMARK   15  A    between atoms: _36  and  _38
REMARK   16  A    between atoms: _38  and  _39
REMARK   17  A    between atoms: _38  and  _41
REMARK   18  A    between atoms: _41  and  _42
REMARK   19  A    between atoms: _45  and  _47
REMARK   20  A    between atoms: _47  and  _48
REMARK   21  A    between atoms: _47  and  _50
REMARK   22  A    between atoms: _50  and  _51
REMARK   23  A    between atoms: _54  and  _56
REMARK   24  A    between atoms: _56  and  _57
REMARK   25  A    between atoms: _56  and  _59
REMARK   26  A    between atoms: _59  and  _60
REMARK   27  A    between atoms: _63  and  _65
REMARK   28  A    between atoms: _65  and  _66
REMARK   29  A    between atoms: _68  and  _70
REMARK   30  A    between atoms: _70  and  _71
REMARK   31  A    between atoms: _74  and  _76
REMARK   32  A    between atoms: _76  and  _77
REMARK   33  A    between atoms: _76  and  _79
REMARK   34  A    between atoms: _79  and  _80
REMARK   35  A    between atoms: _83  and  _85
REMARK   36  A    between atoms: _85  and  _86
REMARK   37  A    between atoms: _85  and  _88
REMARK   38  A    between atoms: _88  and  _89
REMARK   39  A    between atoms: _92  and  _94
REMARK   40  A    between atoms: _94  and  _95
REMARK   41  A    between atoms: _94  and  _97
REMARK   42  A    between atoms: _97  and  _98
REMARK   43  A    between atoms: _101  and  _103
REMARK   44  A    between atoms: _103  and  _104
REMARK   45  A    between atoms: _103  and  _106
REMARK   46  A    between atoms: _109  and  _111
REMARK   47  A    between atoms: _111  and  _112
REMARK   48  A    between atoms: _111  and  _114
REMARK   49  A    between atoms: _114  and  _115
REMARK   50  A    between atoms: _115  and  _116
REMARK   51  A    between atoms: _116  and  _117
REMARK   52  A    between atoms: _117  and  _118
REMARK   53  A    between atoms: _122  and  _124
REMARK   54  A    between atoms: _124  and  _125
REMARK   55  A    between atoms: _124  and  _127
REMARK   56  A    between atoms: _127  and  _128
REMARK   57  A    between atoms: _128  and  _129
REMARK   58  A    between atoms: _131  and  _133
REMARK   59  A    between atoms: _133  and  _134
REMARK   60  A    between atoms: _133  and  _136
REMARK   61  A    between atoms: _136  and  _137
REMARK   62  A    between atoms: _140  and  _142
REMARK   63  A    between atoms: _142  and  _143
REMARK   64  A    between atoms: _145  and  _147
REMARK   65  A    between atoms: _147  and  _148
REMARK   66  A    between atoms: _150  and  _152
REMARK   67  A    between atoms: _152  and  _153
REMARK   68  A    between atoms: _152  and  _155
REMARK   69  A    between atoms: _158  and  _160
REMARK   70  A    between atoms: _160  and  _161
REMARK   71  A    between atoms: _163  and  _165
REMARK   72  A    between atoms: _165  and  _166
REMARK   73  A    between atoms: _168  and  _170
REMARK   74  A    between atoms: _170  and  _171
REMARK   75  A    between atoms: _170  and  _173
REMARK   76  A    between atoms: _173  and  _174
REMARK   77  A    between atoms: _180  and  _182
REMARK   78  A    between atoms: _182  and  _183
REMARK   79  A    between atoms: _182  and  _185
REMARK   80  A    between atoms: _185  and  _186
REMARK   81  A    between atoms: _189  and  _191
REMARK   82  A    between atoms: _191  and  _192
REMARK   83  A    between atoms: _191  and  _194
REMARK   84  A    between atoms: _197  and  _199
REMARK   85  A    between atoms: _199  and  _200
REMARK   86  A    between atoms: _199  and  _202
REMARK   87  A    between atoms: _202  and  _203
REMARK   88  A    between atoms: _206  and  _208
REMARK   89  A    between atoms: _208  and  _209
REMARK   90  A    between atoms: _208  and  _211
REMARK   91  A    between atoms: _211  and  _212
REMARK   92  A    between atoms: _216  and  _217
REMARK   93  A    between atoms: _222  and  _224
REMARK   94  A    between atoms: _224  and  _225
REMARK   95  A    between atoms: _224  and  _227
REMARK   96  A    between atoms: _230  and  _232
REMARK   97  A    between atoms: _232  and  _233
REMARK   98  A    between atoms: _232  and  _235
REMARK   99  A    between atoms: _235  and  _236
REMARK  100  A    between atoms: _241  and  _243
REMARK  101  A    between atoms: _243  and  _244
REMARK  102  A    between atoms: _243  and  _246
REMARK  103  A    between atoms: _246  and  _247
REMARK  104  A    between atoms: _250  and  _252
REMARK  105  A    between atoms: _252  and  _253
REMARK  106  A    between atoms: _252  and  _255
REMARK  107  A    between atoms: _255  and  _256
REMARK  108  A    between atoms: _259  and  _261
REMARK  109  A    between atoms: _261  and  _262
REMARK  110  A    between atoms: _264  and  _266
REMARK  111  A    between atoms: _266  and  _267
REMARK  112  A    between atoms: _266  and  _269
REMARK  113  A    between atoms: _269  and  _270
REMARK  114  A    between atoms: _270  and  _271
REMARK  115  A    between atoms: _271  and  _272
REMARK  116  A    between atoms: _281  and  _283
REMARK  117  A    between atoms: _283  and  _284
REMARK  118  A    between atoms: _283  and  _286
REMARK  119  A    between atoms: _286  and  _287
REMARK  120  A    between atoms: _292  and  _294
REMARK  121  A    between atoms: _294  and  _295
REMARK  122  A    between atoms: _294  and  _297
REMARK  123  A    between atoms: _297  and  _298
REMARK  124  A    between atoms: _298  and  _299
REMARK  125  A    between atoms: _299  and  _300
REMARK  126  A    between atoms: _302  and  _303
REMARK  127  A    between atoms: _309  and  _311
REMARK  128  A    between atoms: _311  and  _312
REMARK  129  A    between atoms: _311  and  _314
REMARK  130  A    between atoms: _314  and  _315
REMARK  131  A    between atoms: _318  and  _320
REMARK  132  A    between atoms: _320  and  _321
REMARK  133  A    between atoms: _320  and  _323
REMARK  134  A    between atoms: _323  and  _324
REMARK  135  A    between atoms: _327  and  _329
REMARK  136  A    between atoms: _329  and  _330
REMARK  137  A    between atoms: _329  and  _332
REMARK  138  A    between atoms: _332  and  _333
REMARK  139  A    between atoms: _336  and  _338
REMARK  140  A    between atoms: _338  and  _339
REMARK  141  A    between atoms: _338  and  _341
REMARK  142  A    between atoms: _341  and  _342
REMARK  143  A    between atoms: _345  and  _347
REMARK  144  A    between atoms: _347  and  _348
REMARK  145  A    between atoms: _350  and  _352
REMARK  146  A    between atoms: _352  and  _353
REMARK  147  A    between atoms: _356  and  _358
REMARK  148  A    between atoms: _358  and  _359
REMARK  149  A    between atoms: _358  and  _361
REMARK  150  A    between atoms: _361  and  _362
REMARK  151  A    between atoms: _365  and  _367
REMARK  152  A    between atoms: _367  and  _368
REMARK  153  A    between atoms: _367  and  _370
REMARK  154  A    between atoms: _370  and  _371
REMARK  155  A    between atoms: _374  and  _376
REMARK  156  A    between atoms: _376  and  _377
REMARK  157  A    between atoms: _376  and  _379
REMARK  158  A    between atoms: _379  and  _380
REMARK  159  A    between atoms: _383  and  _385
REMARK  160  A    between atoms: _385  and  _386
REMARK  161  A    between atoms: _385  and  _388
REMARK  162  A    between atoms: _391  and  _393
REMARK  163  A    between atoms: _393  and  _394
REMARK  164  A    between atoms: _393  and  _396
REMARK  165  A    between atoms: _396  and  _397
REMARK  166  A    between atoms: _397  and  _398
REMARK  167  A    between atoms: _398  and  _399
REMARK  168  A    between atoms: _399  and  _400
REMARK  169  A    between atoms: _404  and  _406
REMARK  170  A    between atoms: _406  and  _407
REMARK  171  A    between atoms: _406  and  _409
REMARK  172  A    between atoms: _409  and  _410
REMARK  173  A    between atoms: _410  and  _411
REMARK  174  A    between atoms: _413  and  _415
REMARK  175  A    between atoms: _415  and  _416
REMARK  176  A    between atoms: _415  and  _418
REMARK  177  A    between atoms: _418  and  _419
REMARK  178  A    between atoms: _422  and  _424
REMARK  179  A    between atoms: _424  and  _425
REMARK  180  A    between atoms: _427  and  _429
REMARK  181  A    between atoms: _429  and  _430
REMARK  182  A    between atoms: _432  and  _434
REMARK  183  A    between atoms: _434  and  _435
REMARK  184  A    between atoms: _434  and  _437
REMARK  185  A    between atoms: _440  and  _442
REMARK  186  A    between atoms: _442  and  _443
REMARK  187  A    between atoms: _445  and  _447
REMARK  188  A    between atoms: _447  and  _448
REMARK  189  A    between atoms: _450  and  _452
REMARK  190  A    between atoms: _452  and  _453
REMARK  191  A    between atoms: _452  and  _455
REMARK  192  A    between atoms: _455  and  _456
REMARK  193  A    between atoms: _462  and  _464
REMARK  194  A    between atoms: _464  and  _465
REMARK  195  A    between atoms: _464  and  _467
REMARK  196  A    between atoms: _467  and  _468
REMARK  197  A    between atoms: _471  and  _473
REMARK  198  A    between atoms: _473  and  _474
REMARK  199  A    between atoms: _473  and  _476
REMARK  200  A    between atoms: _479  and  _481
REMARK  201  A    between atoms: _481  and  _482
REMARK  202  A    between atoms: _481  and  _484
REMARK  203  A    between atoms: _484  and  _485
REMARK  204  A    between atoms: _489  and  _490
REMARK  205  A    between atoms: _495  and  _497
REMARK  206  A    between atoms: _497  and  _498
REMARK  207  A    between atoms: _497  and  _500
REMARK  208  A    between atoms: _500  and  _501
REMARK  209  A    between atoms: _505  and  _506
REMARK  210  A    between atoms: _511  and  _513
REMARK  211  A    between atoms: _513  and  _514
REMARK  212  A    between atoms: _513  and  _516
REMARK  213  A    between atoms: _519  and  _521
REMARK  214  A    between atoms: _521  and  _522
REMARK  215  A    between atoms: _521  and  _524
REMARK  216  A    between atoms: _524  and  _525
REMARK  217  A    between atoms: _530  and  _532
REMARK  218  A    between atoms: _532  and  _533
REMARK  219  A    between atoms: _532  and  _535
REMARK  220  A    between atoms: _535  and  _536
REMARK  221  A    between atoms: _539  and  _541
REMARK  222  A    between atoms: _541  and  _542
REMARK  223  A    between atoms: _541  and  _544
REMARK  224  A    between atoms: _544  and  _545
REMARK  225  A    between atoms: _548  and  _550
REMARK  226  A    between atoms: _550  and  _551
REMARK  227  A    between atoms: _553  and  _555
REMARK  228  A    between atoms: _555  and  _556
REMARK  229  A    between atoms: _555  and  _558
REMARK  230  A    between atoms: _558  and  _559
REMARK  231  A    between atoms: _559  and  _560
REMARK  232  A    between atoms: _560  and  _561
REMARK  233  A    between atoms: _570  and  _572
REMARK  234  A    between atoms: _572  and  _573
REMARK  235  A    between atoms: _572  and  _575
REMARK  236  A    between atoms: _575  and  _576
REMARK                            x       y       z     vdW  Elec       q    Type
REMARK                         _______ _______ _______ _____ _____    ______ ____
ROOT
ATOM      1  NE  ARG A   1       5.829  20.272  15.566  0.00  0.00    -0.265 N 
ATOM      2  HE  ARG A   1       6.130  20.216  16.560  0.00  0.00    +0.259 HD
ATOM      3  CZ  ARG A   1       5.908  19.179  14.852  0.00  0.00    +0.342 C 
ATOM      4  NH2 ARG A   1       6.343  18.056  15.366  0.00  0.00    -0.292 N 
ATOM      5 HH21 ARG A   1       6.635  18.019  16.363  0.00  0.00    +0.255 HD
ATOM      6 HH22 ARG A   1       6.396  17.201  14.777  0.00  0.00    +0.255 HD
ATOM      7  NH1 ARG A   1       5.550  19.165  13.587  0.00  0.00    -0.292 N 
ATOM      8 HH11 ARG A   1       5.196  20.033  13.137  0.00  0.00    +0.255 HD
ATOM      9 HH12 ARG A   1       5.620  18.286  13.036  0.00  0.00    +0.255 HD
ENDROOT
BRANCH   1  10
ATOM     10  CD  ARG A   1       5.349  21.574  15.077  0.00  0.00    +0.174 C 
BRANCH  10  11
ATOM     11  CG  ARG A   1       5.027  22.465  16.253  0.00  0.00    +0.045 C 
BRANCH  11  12
ATOM     12  CB  ARG A   1       4.488  23.817  15.793  0.00  0.00    +0.029 C 
BRANCH  12  13
ATOM     13  CA  ARG A   1       3.869  24.656  16.918  0.00  0.00    +0.133 C 
BRANCH  13  14
ATOM     14  N   ARG A   1       2.653  24.025  17.419  0.00  0.00    -0.239 NA
ATOM     15  H   ARG A   1       2.324  23.130  17.003  0.00  0.00    +0.142 HD
ENDBRANCH  13  14
BRANCH  13  16
ATOM     16  C   ARG A   1       3.594  26.051  16.412  0.00  0.00    +0.224 C 
ATOM     17  O   ARG A   1       2.619  26.253  15.699  0.00  0.00    -0.287 OA
ENDBRANCH  13  16
ENDBRANCH  12  13
ENDBRANCH  11  12
ENDBRANCH  10  11
ENDBRANCH   1  10
TORSDOF 6
REMARK  Name = ../refined-set-2016/2avq/2avq_pocket.pdb
REMARK  236 active torsions:
REMARK  status: ('A' for Active; 'I' for Inactive)
REMARK    1  A    between atoms: _1  and  _3
REMARK    2  A    between atoms: _3  and  _4
REMARK    3  A    between atoms: _3  and  _6
REMARK    4  A    between atoms: _6  and  _7
REMARK    5  A    between atoms: _7  and  _8
REMARK    6  A    between atoms: _8  and  _9
REMARK    7  A    between atoms: _18  and  _20
REMARK    8  A    between atoms: _20  and  _21
REMARK    9  A    between atoms: _20  and  _23
REMARK   10  A    between atoms: _23  and  _24
REMARK   11  A    between atoms: _27  and  _29
REMARK   12  A    between atoms: _29  and  _30
REMARK   13  A    between atoms: _29  and  _32
REMARK   14  A    between atoms: _32  and  _33
REMARK   15  A    between atoms: _36  and  _38
REMARK   16  A    between atoms: _38  and  _39
REMARK   17  A    between atoms: _38  and  _41
REMARK   18  A    between atoms: _41  and  _42
REMARK   19  A    between atoms: _45  and  _47
REMARK   20  A    between atoms: _47  and  _48
REMARK   21  A    between atoms: _47  and  _50
REMARK   22  A    between atoms: _50  and  _51
REMARK   23  A    between atoms: _54  and  _56
REMARK   24  A    between atoms: _56  and  _57
REMARK   25  A    between atoms: _56  and  _59
REMARK   26  A    between atoms: _59  and  _60
REMARK   27  A    between atoms: _63  and  _65
REMARK   28  A    between atoms: _65  and  _66
REMARK   29  A    between atoms: _68  and  _70
REMARK   30  A    between atoms: _70  and  _71
REMARK   31  A    between atoms: _74  and  _76
REMARK   32  A    between atoms: _76  and  _77
REMARK   33  A    between atoms: _76  and  _79
REMARK   34  A    between atoms: _79  and  _80
REMARK   35  A    between atoms: _83  and  _85
REMARK   36  A    between atoms: _85  and  _86
REMARK   37  A    between atoms: _85  and  _88
REMARK   38  A    between atoms: _88  and  _89
REMARK   39  A    between atoms: _92  and  _94
REMARK   40  A    between atoms: _94  and  _95
REMARK   41  A    between atoms: _94  and  _97
REMARK   42  A    between atoms: _97  and  _98
REMARK   43  A    between atoms: _101  and  _103
REMARK   44  A    between atoms: _103  and  _104
REMARK   45  A    between atoms: _103  and  _106
REMARK   46  A    between atoms: _109  and  _111
REMARK   47  A    between atoms: _111  and  _112
REMARK   48  A    between atoms: _111  and  _114
REMARK   49  A    between atoms: _114  and  _115
REMARK   50  A    between atoms: _115  and  _116
REMARK   51  A    between atoms: _116  and  _117
REMARK   52  A    between atoms: _117  and  _118
REMARK   53  A    between atoms: _122  and  _124
REMARK   54  A    between atoms: _124  and  _125
REMARK   55  A    between atoms: _124  and  _127
REMARK   56  A    between atoms: _127  and  _128
REMARK   57  A    between atoms: _128  and  _129
REMARK   58  A    between atoms: _131  and  _133
REMARK   59  A    between atoms: _133  and  _134
REMARK   60  A    between atoms: _133  and  _136
REMARK   61  A    between atoms: _136  and  _137
REMARK   62  A    between atoms: _140  and  _142
REMARK   63  A    between atoms: _142  and  _143
REMARK   64  A    between atoms: _145  and  _147
REMARK   65  A    between atoms: _147  and  _148
REMARK   66  A    between atoms: _150  and  _152
REMARK   67  A    between atoms: _152  and  _153
REMARK   68  A    between atoms: _152  and  _155
REMARK   69  A    between atoms: _158  and  _160
REMARK   70  A    between atoms: _160  and  _161
REMARK   71  A    between atoms: _163  and  _165
REMARK   72  A    between atoms: _165  and  _166
REMARK   73  A    between atoms: _168  and  _170
REMARK   74  A    between atoms: _170  and  _171
REMARK   75  A    between atoms: _170  and  _173
REMARK   76  A    between atoms: _173  and  _174
REMARK   77  A    between atoms: _180  and  _182
REMARK   78  A    between atoms: _182  and  _183
REMARK   79  A    between atoms: _182  and  _185
REMARK   80  A    between atoms: _185  and  _186
REMARK   81  A    between atoms: _189  and  _191
REMARK   82  A    between atoms: _191  and  _192
REMARK   83  A    between atoms: _191  and  _194
REMARK   84  A    between atoms: _197  and  _199
REMARK   85  A    between atoms: _199  and  _200
REMARK   86  A    between atoms: _199  and  _202
REMARK   87  A    between atoms: _202  and  _203
REMARK   88  A    between atoms: _206  and  _208
REMARK   89  A    between atoms: _208  and  _209
REMARK   90  A    between atoms: _208  and  _211
REMARK   91  A    between atoms: _211  and  _212
REMARK   92  A    between atoms: _216  and  _217
REMARK   93  A    between atoms: _222  and  _224
REMARK   94  A    between atoms: _224  and  _225
REMARK   95  A    between atoms: _224  and  _227
REMARK   96  A    between atoms: _230  and  _232
REMARK   97  A    between atoms: _232  and  _233
REMARK   98  A    between atoms: _232  and  _235
REMARK   99  A    between atoms: _235  and  _236
REMARK  100  A    between atoms: _241  and  _243
REMARK  101  A    between atoms: _243  and  _244
REMARK  102  A    between atoms: _243  and  _246
REMARK  103  A    between atoms: _246  and  _247
REMARK  104  A    between atoms: _250  and  _252
REMARK  105  A    between atoms: _252  and  _253
REMARK  106  A    between atoms: _252  and  _255
REMARK  107  A    between atoms: _255  and  _256
REMARK  108  A    between atoms: _259  and  _261
REMARK  109  A    between atoms: _261  and  _262
REMARK  110  A    between atoms: _264  and  _266
REMARK  111  A    between atoms: _266  and  _267
REMARK  112  A    between atoms: _266  and  _269
REMARK  113  A    between atoms: _269  and  _270
REMARK  114  A    between atoms: _270  and  _271
REMARK  115  A    between atoms: _271  and  _272
REMARK  116  A    between atoms: _281  and  _283
REMARK  117  A    between atoms: _283  and  _284
REMARK  118  A    between atoms: _283  and  _286
REMARK  119  A    between atoms: _286  and  _287
REMARK  120  A    between atoms: _292  and  _294
REMARK  121  A    between atoms: _294  and  _295
REMARK  122  A    between atoms: _294  and  _297
REMARK  123  A    between atoms: _297  and  _298
REMARK  124  A    between atoms: _298  and  _299
REMARK  125  A    between atoms: _299  and  _300
REMARK  126  A    between atoms: _302  and  _303
REMARK  127  A    between atoms: _309  and  _311
REMARK  128  A    between atoms: _311  and  _312
REMARK  129  A    between atoms: _311  and  _314
REMARK  130  A    between atoms: _314  and  _315
REMARK  131  A    between atoms: _318  and  _320
REMARK  132  A    between atoms: _320  and  _321
REMARK  133  A    between atoms: _320  and  _323
REMARK  134  A    between atoms: _323  and  _324
REMARK  135  A    between atoms: _327  and  _329
REMARK  136  A    between atoms: _329  and  _330
REMARK  137  A    between atoms: _329  and  _332
REMARK  138  A    between atoms: _332  and  _333
REMARK  139  A    between atoms: _336  and  _338
REMARK  140  A    between atoms: _338  and  _339
REMARK  141  A    between atoms: _338  and  _341
REMARK  142  A    between atoms: _341  and  _342
REMARK  143  A    between atoms: _345  and  _347
REMARK  144  A    between atoms: _347  and  _348
REMARK  145  A    between atoms: _350  and  _352
REMARK  146  A    between atoms: _352  and  _353
REMARK  147  A    between atoms: _356  and  _358
REMARK  148  A    between atoms: _358  and  _359
REMARK  149  A    between atoms: _358  and  _361
REMARK  150  A    between atoms: _361  and  _362
REMARK  151  A    between atoms: _365  and  _367
REMARK  152  A    between atoms: _367  and  _368
REMARK  153  A    between atoms: _367  and  _370
REMARK  154  A    between atoms: _370  and  _371
REMARK  155  A    between atoms: _374  and  _376
REMARK  156  A    between atoms: _376  and  _377
REMARK  157  A    between atoms: _376  and  _379
REMARK  158  A    between atoms: _379  and  _380
REMARK  159  A    between atoms: _383  and  _385
REMARK  160  A    between atoms: _385  and  _386
REMARK  161  A    between atoms: _385  and  _388
REMARK  162  A    between atoms: _391  and  _393
REMARK  163  A    between atoms: _393  and  _394
REMARK  164  A    between atoms: _393  and  _396
REMARK  165  A    between atoms: _396  and  _397
REMARK  166  A    between atoms: _397  and  _398
REMARK  167  A    between atoms: _398  and  _399
REMARK  168  A    between atoms: _399  and  _400
REMARK  169  A    between atoms: _404  and  _406
REMARK  170  A    between atoms: _406  and  _407
REMARK  171  A    between atoms: _406  and  _409
REMARK  172  A    between atoms: _409  and  _410
REMARK  173  A    between atoms: _410  and  _411
REMARK  174  A    between atoms: _413  and  _415
REMARK  175  A    between atoms: _415  and  _416
REMARK  176  A    between atoms: _415  and  _418
REMARK  177  A    between atoms: _418  and  _419
REMARK  178  A    between atoms: _422  and  _424
REMARK  179  A    between atoms: _424  and  _425
REMARK  180  A    between atoms: _427  and  _429
REMARK  181  A    between atoms: _429  and  _430
REMARK  182  A    between atoms: _432  and  _434
REMARK  183  A    between atoms: _434  and  _435
REMARK  184  A    between atoms: _434  and  _437
REMARK  185  A    between atoms: _440  and  _442
REMARK  186  A    between atoms: _442  and  _443
REMARK  187  A    between atoms: _445  and  _447
REMARK  188  A    between atoms: _447  and  _448
REMARK  189  A    between atoms: _450  and  _452
REMARK  190  A    between atoms: _452  and  _453
REMARK  191  A    between atoms: _452  and  _455
REMARK  192  A    between atoms: _455  and  _456
REMARK  193  A    between atoms: _462  and  _464
REMARK  194  A    between atoms: _464  and  _465
REMARK  195  A    between atoms: _464  and  _467
REMARK  196  A    between atoms: _467  and  _468
REMARK  197  A    between atoms: _471  and  _473
REMARK  198  A    between atoms: _473  and  _474
REMARK  199  A    between atoms: _473  and  _476
REMARK  200  A    between atoms: _479  and  _481
REMARK  201  A    between atoms: _481  and  _482
REMARK  202  A    between atoms: _481  and  _484
REMARK  203  A    between atoms: _484  and  _485
REMARK  204  A    between atoms: _489  and  _490
REMARK  205  A    between atoms: _495  and  _497
REMARK  206  A    between atoms: _497  and  _498
REMARK  207  A    between atoms: _497  and  _500
REMARK  208  A    between atoms: _500  and  _501
REMARK  209  A    between atoms: _505  and  _506
REMARK  210  A    between atoms: _511  and  _513
REMARK  211  A    between atoms: _513  and  _514
REMARK  212  A    between atoms: _513  and  _516
REMARK  213  A    between atoms: _519  and  _521
REMARK  214  A    between atoms: _521  and  _522
REMARK  215  A    between atoms: _521  and  _524
REMARK  216  A    between atoms: _524  and  _525
REMARK  217  A    between atoms: _530  and  _532
REMARK  218  A    between atoms: _532  and  _533
REMARK  219  A    between atoms: _532  and  _535
REMARK  220  A    between atoms: _535  and  _536
REMARK  221  A    between atoms: _539  and  _541
REMARK  222  A    between atoms: _541  and  _542
REMARK  223  A    between atoms: _541  and  _544
REMARK  224  A    between atoms: _544  and  _545
REMARK  225  A    between atoms: _548  and  _550
REMARK  226  A    between atoms: _550  and  _551
REMARK  227  A    between atoms: _553  and  _555
REMARK  228  A    between atoms: _555  and  _556
REMARK  229  A    between atoms: _555  and  _558
REMARK  230  A    between atoms: _558  and  _559
REMARK  231  A    between atoms: _559  and  _560
REMARK  232  A    between atoms: _560  and  _561
REMARK  233  A    between atoms: _570  and  _572
REMARK  234  A    between atoms: _572  and  _573
REMARK  235  A    between atoms: _572  and  _575
REMARK  236  A    between atoms: _575  and  _576
REMARK                            x       y       z     vdW  Elec       q    Type
REMARK                         _______ _______ _______ _____ _____    ______ ____
ROOT
ATOM      1  CA  LEU A   1       4.209  28.418  12.555  0.00  0.00    +0.133 C 
ENDROOT
BRANCH   1   2
ATOM      2  N   LEU A   1       3.918  28.306  13.969  0.00  0.00    -0.239 NA
ATOM      3  H   LEU A   1       3.010  27.885  14.252  0.00  0.00    +0.142 HD
ENDBRANCH   1   2
BRANCH   1   4
ATOM      4  C   LEU A   1       3.575  29.668  12.005  0.00  0.00    +0.224 C 
ATOM      5  O   LEU A   1       2.430  29.981  12.348  0.00  0.00    -0.287 OA
ENDBRANCH   1   4
BRANCH   1   6
ATOM      6  CB  LEU A   1       3.627  27.217  11.830  0.00  0.00    +0.025 C 
BRANCH   6   7
ATOM      7  CG  LEU A   1       4.269  25.868  12.192  0.00  0.00    +0.002 C 
ATOM      8  CD2 LEU A   1       5.729  25.864  11.779  0.00  0.00    +0.000 C 
ATOM      9  CD1 LEU A   1       3.555  24.678  11.582  0.00  0.00    +0.000 C 
ENDBRANCH   6   7
ENDBRANCH   1   6
TORSDOF 4
REMARK  Name = ../refined-set-2016/2avq/2avq_pocket.pdb
REMARK  236 active torsions:
REMARK  status: ('A' for Active; 'I' for Inactive)
REMARK    1  A    between atoms: _1  and  _3
REMARK    2  A    between atoms: _3  and  _4
REMARK    3  A    between atoms: _3  and  _6
REMARK    4  A    between atoms: _6  and  _7
REMARK    5  A    between atoms: _7  and  _8
REMARK    6  A    between atoms: _8  and  _9
REMARK    7  A    between atoms: _18  and  _20
REMARK    8  A    between atoms: _20  and  _21
REMARK    9  A    between atoms: _20  and  _23
REMARK   10  A    between atoms: _23  and  _24
REMARK   11  A    between atoms: _27  and  _29
REMARK   12  A    between atoms: _29  and  _30
REMARK   13  A    between atoms: _29  and  _32
REMARK   14  A    between atoms: _32  and  _33
REMARK   15  A    between atoms: _36  and  _38
REMARK   16  A    between atoms: _38  and  _39
REMARK   17  A    between atoms: _38  and  _41
REMARK   18  A    between atoms: _41  and  _42
REMARK   19  A    between atoms: _45  and  _47
REMARK   20  A    between atoms: _47  and  _48
REMARK   21  A    between atoms: _47  and  _50
REMARK   22  A    between atoms: _50  and  _51
REMARK   23  A    between atoms: _54  and  _56
REMARK   24  A    between atoms: _56  and  _57
REMARK   25  A    between atoms: _56  and  _59
REMARK   26  A    between atoms: _59  and  _60
REMARK   27  A    between atoms: _63  and  _65
REMARK   28  A    between atoms: _65  and  _66
REMARK   29  A    between atoms: _68  and  _70
REMARK   30  A    between atoms: _70  and  _71
REMARK   31  A    between atoms: _74  and  _76
REMARK   32  A    between atoms: _76  and  _77
REMARK   33  A    between atoms: _76  and  _79
REMARK   34  A    between atoms: _79  and  _80
REMARK   35  A    between atoms: _83  and  _85
REMARK   36  A    between atoms: _85  and  _86
REMARK   37  A    between atoms: _85  and  _88
REMARK   38  A    between atoms: _88  and  _89
REMARK   39  A    between atoms: _92  and  _94
REMARK   40  A    between atoms: _94  and  _95
REMARK   41  A    between atoms: _94  and  _97
REMARK   42  A    between atoms: _97  and  _98
REMARK   43  A    between atoms: _101  and  _103
REMARK   44  A    between atoms: _103  and  _104
REMARK   45  A    between atoms: _103  and  _106
REMARK   46  A    between atoms: _109  and  _111
REMARK   47  A    between atoms: _111  and  _112
REMARK   48  A    between atoms: _111  and  _114
REMARK   49  A    between atoms: _114  and  _115
REMARK   50  A    between atoms: _115  and  _116
REMARK   51  A    between atoms: _116  and  _117
REMARK   52  A    between atoms: _117  and  _118
REMARK   53  A    between atoms: _122  and  _124
REMARK   54  A    between atoms: _124  and  _125
REMARK   55  A    between atoms: _124  and  _127
REMARK   56  A    between atoms: _127  and  _128
REMARK   57  A    between atoms: _128  and  _129
REMARK   58  A    between atoms: _131  and  _133
REMARK   59  A    between atoms: _133  and  _134
REMARK   60  A    between atoms: _133  and  _136
REMARK   61  A    between atoms: _136  and  _137
REMARK   62  A    between atoms: _140  and  _142
REMARK   63  A    between atoms: _142  and  _143
REMARK   64  A    between atoms: _145  and  _147
REMARK   65  A    between atoms: _147  and  _148
REMARK   66  A    between atoms: _150  and  _152
REMARK   67  A    between atoms: _152  and  _153
REMARK   68  A    between atoms: _152  and  _155
REMARK   69  A    between atoms: _158  and  _160
REMARK   70  A    between atoms: _160  and  _161
REMARK   71  A    between atoms: _163  and  _165
REMARK   72  A    between atoms: _165  and  _166
REMARK   73  A    between atoms: _168  and  _170
REMARK   74  A    between atoms: _170  and  _171
REMARK   75  A    between atoms: _170  and  _173
REMARK   76  A    between atoms: _173  and  _174
REMARK   77  A    between atoms: _180  and  _182
REMARK   78  A    between atoms: _182  and  _183
REMARK   79  A    between atoms: _182  and  _185
REMARK   80  A    between atoms: _185  and  _186
REMARK   81  A    between atoms: _189  and  _191
REMARK   82  A    between atoms: _191  and  _192
REMARK   83  A    between atoms: _191  and  _194
REMARK   84  A    between atoms: _197  and  _199
REMARK   85  A    between atoms: _199  and  _200
REMARK   86  A    between atoms: _199  and  _202
REMARK   87  A    between atoms: _202  and  _203
REMARK   88  A    between atoms: _206  and  _208
REMARK   89  A    between atoms: _208  and  _209
REMARK   90  A    between atoms: _208  and  _211
REMARK   91  A    between atoms: _211  and  _212
REMARK   92  A    between atoms: _216  and  _217
REMARK   93  A    between atoms: _222  and  _224
REMARK   94  A    between atoms: _224  and  _225
REMARK   95  A    between atoms: _224  and  _227
REMARK   96  A    between atoms: _230  and  _232
REMARK   97  A    between atoms: _232  and  _233
REMARK   98  A    between atoms: _232  and  _235
REMARK   99  A    between atoms: _235  and  _236
REMARK  100  A    between atoms: _241  and  _243
REMARK  101  A    between atoms: _243  and  _244
REMARK  102  A    between atoms: _243  and  _246
REMARK  103  A    between atoms: _246  and  _247
REMARK  104  A    between atoms: _250  and  _252
REMARK  105  A    between atoms: _252  and  _253
REMARK  106  A    between atoms: _252  and  _255
REMARK  107  A    between atoms: _255  and  _256
REMARK  108  A    between atoms: _259  and  _261
REMARK  109  A    between atoms: _261  and  _262
REMARK  110  A    between atoms: _264  and  _266
REMARK  111  A    between atoms: _266  and  _267
REMARK  112  A    between atoms: _266  and  _269
REMARK  113  A    between atoms: _269  and  _270
REMARK  114  A    between atoms: _270  and  _271
REMARK  115  A    between atoms: _271  and  _272
REMARK  116  A    between atoms: _281  and  _283
REMARK  117  A    between atoms: _283  and  _284
REMARK  118  A    between atoms: _283  and  _286
REMARK  119  A    between atoms: _286  and  _287
REMARK  120  A    between atoms: _292  and  _294
REMARK  121  A    between atoms: _294  and  _295
REMARK  122  A    between atoms: _294  and  _297
REMARK  123  A    between atoms: _297  and  _298
REMARK  124  A    between atoms: _298  and  _299
REMARK  125  A    between atoms: _299  and  _300
REMARK  126  A    between atoms: _302  and  _303
REMARK  127  A    between atoms: _309  and  _311
REMARK  128  A    between atoms: _311  and  _312
REMARK  129  A    between atoms: _311  and  _314
REMARK  130  A    between atoms: _314  and  _315
REMARK  131  A    between atoms: _318  and  _320
REMARK  132  A    between atoms: _320  and  _321
REMARK  133  A    between atoms: _320  and  _323
REMARK  134  A    between atoms: _323  and  _324
REMARK  135  A    between atoms: _327  and  _329
REMARK  136  A    between atoms: _329  and  _330
REMARK  137  A    between atoms: _329  and  _332
REMARK  138  A    between atoms: _332  and  _333
REMARK  139  A    between atoms: _336  and  _338
REMARK  140  A    between atoms: _338  and  _339
REMARK  141  A    between atoms: _338  and  _341
REMARK  142  A    between atoms: _341  and  _342
REMARK  143  A    between atoms: _345  and  _347
REMARK  144  A    between atoms: _347  and  _348
REMARK  145  A    between atoms: _350  and  _352
REMARK  146  A    between atoms: _352  and  _353
REMARK  147  A    between atoms: _356  and  _358
REMARK  148  A    between atoms: _358  and  _359
REMARK  149  A    between atoms: _358  and  _361
REMARK  150  A    between atoms: _361  and  _362
REMARK  151  A    between atoms: _365  and  _367
REMARK  152  A    between atoms: _367  and  _368
REMARK  153  A    between atoms: _367  and  _370
REMARK  154  A    between atoms: _370  and  _371
REMARK  155  A    between atoms: _374  and  _376
REMARK  156  A    between atoms: _376  and  _377
REMARK  157  A    between atoms: _376  and  _379
REMARK  158  A    between atoms: _379  and  _380
REMARK  159  A    between atoms: _383  and  _385
REMARK  160  A    between atoms: _385  and  _386
REMARK  161  A    between atoms: _385  and  _388
REMARK  162  A    between atoms: _391  and  _393
REMARK  163  A    between atoms: _393  and  _394
REMARK  164  A    between atoms: _393  and  _396
REMARK  165  A    between atoms: _396  and  _397
REMARK  166  A    between atoms: _397  and  _398
REMARK  167  A    between atoms: _398  and  _399
REMARK  168  A    between atoms: _399  and  _400
REMARK  169  A    between atoms: _404  and  _406
REMARK  170  A    between atoms: _406  and  _407
REMARK  171  A    between atoms: _406  and  _409
REMARK  172  A    between atoms: _409  and  _410
REMARK  173  A    between atoms: _410  and  _411
REMARK  174  A    between atoms: _413  and  _415
REMARK  175  A    between atoms: _415  and  _416
REMARK  176  A    between atoms: _415  and  _418
REMARK  177  A    between atoms: _418  and  _419
REMARK  178  A    between atoms: _422  and  _424
REMARK  179  A    between atoms: _424  and  _425
REMARK  180  A    between atoms: _427  and  _429
REMARK  181  A    between atoms: _429  and  _430
REMARK  182  A    between atoms: _432  and  _434
REMARK  183  A    between atoms: _434  and  _435
REMARK  184  A    between atoms: _434  and  _437
REMARK  185  A    between atoms: _440  and  _442
REMARK  186  A    between atoms: _442  and  _443
REMARK  187  A    between atoms: _445  and  _447
REMARK  188  A    between atoms: _447  and  _448
REMARK  189  A    between atoms: _450  and  _452
REMARK  190  A    between atoms: _452  and  _453
REMARK  191  A    between atoms: _452  and  _455
REMARK  192  A    between atoms: _455  and  _456
REMARK  193  A    between atoms: _462  and  _464
REMARK  194  A    between atoms: _464  and  _465
REMARK  195  A    between atoms: _464  and  _467
REMARK  196  A    between atoms: _467  and  _468
REMARK  197  A    between atoms: _471  and  _473
REMARK  198  A    between atoms: _473  and  _474
REMARK  199  A    between atoms: _473  and  _476
REMARK  200  A    between atoms: _479  and  _481
REMARK  201  A    between atoms: _481  and  _482
REMARK  202  A    between atoms: _481  and  _484
REMARK  203  A    between atoms: _484  and  _485
REMARK  204  A    between atoms: _489  and  _490
REMARK  205  A    between atoms: _495  and  _497
REMARK  206  A    between atoms: _497  and  _498
REMARK  207  A    between atoms: _497  and  _500
REMARK  208  A    between atoms: _500  and  _501
REMARK  209  A    between atoms: _505  and  _506
REMARK  210  A    between atoms: _511  and  _513
REMARK  211  A    between atoms: _513  and  _514
REMARK  212  A    between atoms: _513  and  _516
REMARK  213  A    between atoms: _519  and  _521
REMARK  214  A    between atoms: _521  and  _522
REMARK  215  A    between atoms: _521  and  _524
REMARK  216  A    between atoms: _524  and  _525
REMARK  217  A    between atoms: _530  and  _532
REMARK  218  A    between atoms: _532  and  _533
REMARK  219  A    between atoms: _532  and  _535
REMARK  220  A    between atoms: _535  and  _536
REMARK  221  A    between atoms: _539  and  _541
REMARK  222  A    between atoms: _541  and  _542
REMARK  223  A    between atoms: _541  and  _544
REMARK  224  A    between atoms: _544  and  _545
REMARK  225  A    between atoms: _548  and  _550
REMARK  226  A    between atoms: _550  and  _551
REMARK  227  A    between atoms: _553  and  _555
REMARK  228  A    between atoms: _555  and  _556
REMARK  229  A    between atoms: _555  and  _558
REMARK  230  A    between atoms: _558  and  _559
REMARK  231  A    between atoms: _559  and  _560
REMARK  232  A    between atoms: _560  and  _561
REMARK  233  A    between atoms: _570  and  _572
REMARK  234  A    between atoms: _572  and  _573
REMARK  235  A    between atoms: _572  and  _575
REMARK  236  A    between atoms: _575  and  _576
REMARK                            x       y       z     vdW  Elec       q    Type
REMARK                         _______ _______ _______ _____ _____    ______ ____
ROOT
ATOM      1  C   GLY A   5      16.942  28.176  19.757  0.00  0.00    +0.243 C 
ATOM      2  O   GLY A   5      17.940  27.444  19.861  0.00  0.00    -0.273 OA
ATOM      3  N   ALA A   6      16.719  28.978  18.730  0.00  0.00    -0.297 N 
ATOM      4  H   ALA A   6      15.860  29.565  18.728  0.00  0.00    +0.150 HD
ENDROOT
BRANCH   3   5
ATOM      5  CA  ALA A   6      17.641  29.068  17.594  0.00  0.00    +0.149 C 
ATOM      6  CB  ALA A   6      16.890  28.858  16.282  0.00  0.00    +0.031 C 
BRANCH   5   7
ATOM      7  C   ALA A   6      18.336  30.424  17.584  0.00  0.00    +0.241 C 
ATOM      8  O   ALA A   6      17.662  31.448  17.581  0.00  0.00    -0.273 OA
ATOM      9  N   ASP A   7      19.673  30.398  17.555  0.00  0.00    -0.297 N 
ATOM     10  H   ASP A   7      20.189  29.496  17.602  0.00  0.00    +0.150 HD
BRANCH   9  11
ATOM     11  CA  ASP A   7      20.384  31.656  17.457  0.00  0.00    +0.160 C 
BRANCH  11  12
ATOM     12  C   ASP A   7      20.158  32.317  16.106  0.00  0.00    +0.241 C 
ATOM     13  O   ASP A   7      20.157  33.565  16.007  0.00  0.00    -0.273 OA
ATOM     14  N   ASP A   8      20.052  31.514  15.067  0.00  0.00    -0.297 N 
ATOM     15  H   ASP A   8      19.930  30.500  15.264  0.00  0.00    +0.150 HD
BRANCH  14  16
ATOM     16  CA  ASP A   8      20.090  31.911  13.682  0.00  0.00    +0.160 C 
BRANCH  16  17
ATOM     17  C   ASP A   8      18.828  31.473  12.973  0.00  0.00    +0.241 C 
ATOM     18  O   ASP A   8      18.100  30.615  13.425  0.00  0.00    -0.273 OA
ATOM     19  N   THR A   9      18.556  32.032  11.827  0.00  0.00    -0.295 N 
ATOM     20  H   THR A   9      19.212  32.774  11.509  0.00  0.00    +0.150 HD
BRANCH  19  21
ATOM     21  CA  THR A   9      17.442  31.737  10.943  0.00  0.00    +0.176 C 
BRANCH  21  22
ATOM     22  C   THR A   9      17.929  30.793   9.849  0.00  0.00    +0.243 C 
ATOM     23  N   VAL A  10      17.222  29.706   9.639  0.00  0.00    -0.298 N 
ATOM     24  H   VAL A  10      16.307  29.609  10.123  0.00  0.00    +0.150 HD
ATOM     25  O   THR A   9      18.963  31.097   9.230  0.00  0.00    -0.273 OA
BRANCH  23  26
ATOM     26  CA  VAL A  10      17.662  28.621   8.753  0.00  0.00    +0.137 C 
BRANCH  26  27
ATOM     27  CB  VAL A  10      18.183  27.395   9.534  0.00  0.00    +0.026 C 
ATOM     28  CG2 VAL A  10      19.054  27.820  10.738  0.00  0.00    +0.002 C 
ATOM     29  CG1 VAL A  10      18.910  26.493   8.557  0.00  0.00    +0.002 C 
ENDBRANCH  26  27
BRANCH  26  30
ATOM     30  C   VAL A  10      16.489  28.242   7.842  0.00  0.00    +0.227 C 
ATOM     31  O   VAL A  10      15.441  27.835   8.316  0.00  0.00    -0.286 OA
ENDBRANCH  26  30
ENDBRANCH  23  26
ENDBRANCH  21  22
BRANCH  21  32
ATOM     32  CB  THR A   9      16.884  33.048  10.371  0.00  0.00    +0.137 C 
ATOM     33  CG2 THR A   9      15.850  32.854   9.292  0.00  0.00    +0.034 C 
BRANCH  32  34
ATOM     34  OG1 THR A   9      16.317  33.794  11.471  0.00  0.00    -0.382 OA
ATOM     35  HG1 THR A   9      17.022  33.980  12.140  0.00  0.00    +0.210 HD
ENDBRANCH  32  34
ENDBRANCH  21  32
ENDBRANCH  19  21
ENDBRANCH  16  17
BRANCH  16  36
ATOM     36  CB  ASP A   8      21.265  31.250  12.957  0.00  0.00    +0.143 C 
BRANCH  36  37
ATOM     37  CG  ASP A   8      22.609  31.482  13.561  0.00  0.00    +0.367 C 
ATOM     38  OD2 ASP A   8      22.836  32.582  14.105  0.00  0.00    -0.246 OA
ATOM     39  OD1 ASP A   8      23.472  30.585  13.487  0.00  0.00    -0.246 OA
ENDBRANCH  36  37
ENDBRANCH  16  36
ENDBRANCH  14  16
ENDBRANCH  11  12
BRANCH  11  40
ATOM     40  CB  ASP A   7      21.885  31.417  17.631  0.00  0.00    +0.143 C 
BRANCH  40  41
ATOM     41  CG  ASP A   7      22.342  30.974  18.983  0.00  0.00    +0.367 C 
ATOM     42  OD2 ASP A   7      21.564  30.906  19.954  0.00  0.00    -0.246 OA
ATOM     43  OD1 ASP A   7      23.568  30.700  19.055  0.00  0.00    -0.246 OA
ENDBRANCH  40  41
ENDBRANCH  11  40
ENDBRANCH   9  11
ENDBRANCH   5   7
ENDBRANCH   3   5
BRANCH   1  44
ATOM     44  CA  GLY A   5      15.931  28.187  20.874  0.00  0.00    +0.176 C 
BRANCH  44  47
ATOM     45  C   THR A   4      14.714  30.272  20.940  0.00  0.00    +0.243 C 
ATOM     46  O   THR A   4      15.632  30.900  21.481  0.00  0.00    -0.273 OA
ATOM     47  N   GLY A   5      14.769  28.989  20.676  0.00  0.00    -0.295 N 
ATOM     48  H   GLY A   5      13.915  28.529  20.300  0.00  0.00    +0.150 HD
BRANCH  45  49
ATOM     49  CA  THR A   4      13.441  31.035  20.572  0.00  0.00    +0.176 C 
BRANCH  49  51
ATOM     50  C   ASP A   3      13.104  30.064  18.371  0.00  0.00    +0.241 C 
ATOM     51  N   THR A   4      12.635  30.304  19.612  0.00  0.00    -0.295 N 
ATOM     52  H   THR A   4      11.690  29.963  19.883  0.00  0.00    +0.150 HD
ATOM     53  O   ASP A   3      14.187  30.487  17.979  0.00  0.00    -0.273 OA
BRANCH  50  54
ATOM     54  CA  ASP A   3      12.177  29.251  17.474  0.00  0.00    +0.160 C 
BRANCH  54  57
ATOM     55  C   LEU A   2      10.027  30.046  16.585  0.00  0.00    +0.241 C 
ATOM     56  O   LEU A   2       9.363  29.400  17.398  0.00  0.00    -0.273 OA
ATOM     57  N   ASP A   3      11.364  30.082  16.615  0.00  0.00    -0.297 N 
ATOM     58  H   ASP A   3      11.848  30.749  15.981  0.00  0.00    +0.150 HD
BRANCH  55  59
ATOM     59  CA  LEU A   2       9.309  30.762  15.448  0.00  0.00    +0.149 C 
BRANCH  59  61
ATOM     60  C   LEU A   1       9.398  29.119  13.678  0.00  0.00    +0.238 C 
ATOM     61  N   LEU A   2       8.672  29.770  14.569  0.00  0.00    -0.297 N 
ATOM     62  H   LEU A   2       7.652  29.581  14.649  0.00  0.00    +0.150 HD
ATOM     63  O   LEU A   1      10.607  29.347  13.466  0.00  0.00    -0.274 OA
BRANCH  60  64
ATOM     64  CA  LEU A   1       8.729  27.996  12.908  0.00  0.00    +0.145 C 
BRANCH  64  65
ATOM     65  N   LEU A   1       8.874  28.190  11.464  0.00  0.00    -0.238 NA
ATOM     66  H   LEU A   1       9.745  27.836  11.020  0.00  0.00    +0.142 HD
ENDBRANCH  64  65
BRANCH  64  67
ATOM     67  CB  LEU A   1       9.370  26.653  13.250  0.00  0.00    +0.026 C 
BRANCH  67  68
ATOM     68  CG  LEU A   1       9.304  26.183  14.686  0.00  0.00    +0.002 C 
ATOM     69  CD2 LEU A   1       7.895  25.803  15.075  0.00  0.00    +0.000 C 
ATOM     70  CD1 LEU A   1      10.241  25.012  14.874  0.00  0.00    +0.000 C 
ENDBRANCH  67  68
ENDBRANCH  64  67
ENDBRANCH  60  64
ENDBRANCH  59  61
BRANCH  59  71
ATOM     71  CB  LEU A   2       8.252  31.718  15.979  0.00  0.00    +0.029 C 
BRANCH  71  72
ATOM     72  CG  LEU A   2       7.404  32.418  14.907  0.00  0.00    +0.002 C 
ATOM     73  CD2 LEU A   2       6.432  33.331  15.648  0.00  0.00    +0.000 C 
ATOM     74  CD1 LEU A   2       8.285  33.101  13.878  0.00  0.00    +0.000 C 
ENDBRANCH  71  72
ENDBRANCH  59  71
ENDBRANCH  55  59
ENDBRANCH  54  57
BRANCH  54  75
ATOM     75  CB  ASP A   3      12.991  28.266  16.644  0.00  0.00    +0.143 C 
BRANCH  75  76
ATOM     76  CG  ASP A   3      13.727  27.194  17.422  0.00  0.00    +0.367 C 
ATOM     77  OD2 ASP A   3      13.627  27.166  18.665  0.00  0.00    -0.246 OA
ATOM     78  OD1 ASP A   3      14.425  26.393  16.757  0.00  0.00    -0.246 OA
ENDBRANCH  75  76
ENDBRANCH  54  75
ENDBRANCH  50  54
ENDBRANCH  49  51
BRANCH  49  79
ATOM     79  CB  THR A   4      12.646  31.372  21.830  0.00  0.00    +0.137 C 
ATOM     80  CG2 THR A   4      11.469  32.279  21.503  0.00  0.00    +0.034 C 
BRANCH  79  81
ATOM     81  OG1 THR A   4      12.167  30.170  22.458  0.00  0.00    -0.382 OA
ATOM     82  HG1 THR A   4      12.937  29.599  22.706  0.00  0.00    +0.210 HD
ENDBRANCH  79  81
ENDBRANCH  49  79
ENDBRANCH  45  49
ENDBRANCH  44  47
ENDBRANCH   1  44
TORSDOF 35
REMARK  Name = ../refined-set-2016/2avq/2avq_pocket.pdb
REMARK  236 active torsions:
REMARK  status: ('A' for Active; 'I' for Inactive)
REMARK    1  A    between atoms: _1  and  _3
REMARK    2  A    between atoms: _3  and  _4
REMARK    3  A    between atoms: _3  and  _6
REMARK    4  A    between atoms: _6  and  _7
REMARK    5  A    between atoms: _7  and  _8
REMARK    6  A    between atoms: _8  and  _9
REMARK    7  A    between atoms: _18  and  _20
REMARK    8  A    between atoms: _20  and  _21
REMARK    9  A    between atoms: _20  and  _23
REMARK   10  A    between atoms: _23  and  _24
REMARK   11  A    between atoms: _27  and  _29
REMARK   12  A    between atoms: _29  and  _30
REMARK   13  A    between atoms: _29  and  _32
REMARK   14  A    between atoms: _32  and  _33
REMARK   15  A    between atoms: _36  and  _38
REMARK   16  A    between atoms: _38  and  _39
REMARK   17  A    between atoms: _38  and  _41
REMARK   18  A    between atoms: _41  and  _42
REMARK   19  A    between atoms: _45  and  _47
REMARK   20  A    between atoms: _47  and  _48
REMARK   21  A    between atoms: _47  and  _50
REMARK   22  A    between atoms: _50  and  _51
REMARK   23  A    between atoms: _54  and  _56
REMARK   24  A    between atoms: _56  and  _57
REMARK   25  A    between atoms: _56  and  _59
REMARK   26  A    between atoms: _59  and  _60
REMARK   27  A    between atoms: _63  and  _65
REMARK   28  A    between atoms: _65  and  _66
REMARK   29  A    between atoms: _68  and  _70
REMARK   30  A    between atoms: _70  and  _71
REMARK   31  A    between atoms: _74  and  _76
REMARK   32  A    between atoms: _76  and  _77
REMARK   33  A    between atoms: _76  and  _79
REMARK   34  A    between atoms: _79  and  _80
REMARK   35  A    between atoms: _83  and  _85
REMARK   36  A    between atoms: _85  and  _86
REMARK   37  A    between atoms: _85  and  _88
REMARK   38  A    between atoms: _88  and  _89
REMARK   39  A    between atoms: _92  and  _94
REMARK   40  A    between atoms: _94  and  _95
REMARK   41  A    between atoms: _94  and  _97
REMARK   42  A    between atoms: _97  and  _98
REMARK   43  A    between atoms: _101  and  _103
REMARK   44  A    between atoms: _103  and  _104
REMARK   45  A    between atoms: _103  and  _106
REMARK   46  A    between atoms: _109  and  _111
REMARK   47  A    between atoms: _111  and  _112
REMARK   48  A    between atoms: _111  and  _114
REMARK   49  A    between atoms: _114  and  _115
REMARK   50  A    between atoms: _115  and  _116
REMARK   51  A    between atoms: _116  and  _117
REMARK   52  A    between atoms: _117  and  _118
REMARK   53  A    between atoms: _122  and  _124
REMARK   54  A    between atoms: _124  and  _125
REMARK   55  A    between atoms: _124  and  _127
REMARK   56  A    between atoms: _127  and  _128
REMARK   57  A    between atoms: _128  and  _129
REMARK   58  A    between atoms: _131  and  _133
REMARK   59  A    between atoms: _133  and  _134
REMARK   60  A    between atoms: _133  and  _136
REMARK   61  A    between atoms: _136  and  _137
REMARK   62  A    between atoms: _140  and  _142
REMARK   63  A    between atoms: _142  and  _143
REMARK   64  A    between atoms: _145  and  _147
REMARK   65  A    between atoms: _147  and  _148
REMARK   66  A    between atoms: _150  and  _152
REMARK   67  A    between atoms: _152  and  _153
REMARK   68  A    between atoms: _152  and  _155
REMARK   69  A    between atoms: _158  and  _160
REMARK   70  A    between atoms: _160  and  _161
REMARK   71  A    between atoms: _163  and  _165
REMARK   72  A    between atoms: _165  and  _166
REMARK   73  A    between atoms: _168  and  _170
REMARK   74  A    between atoms: _170  and  _171
REMARK   75  A    between atoms: _170  and  _173
REMARK   76  A    between atoms: _173  and  _174
REMARK   77  A    between atoms: _180  and  _182
REMARK   78  A    between atoms: _182  and  _183
REMARK   79  A    between atoms: _182  and  _185
REMARK   80  A    between atoms: _185  and  _186
REMARK   81  A    between atoms: _189  and  _191
REMARK   82  A    between atoms: _191  and  _192
REMARK   83  A    between atoms: _191  and  _194
REMARK   84  A    between atoms: _197  and  _199
REMARK   85  A    between atoms: _199  and  _200
REMARK   86  A    between atoms: _199  and  _202
REMARK   87  A    between atoms: _202  and  _203
REMARK   88  A    between atoms: _206  and  _208
REMARK   89  A    between atoms: _208  and  _209
REMARK   90  A    between atoms: _208  and  _211
REMARK   91  A    between atoms: _211  and  _212
REMARK   92  A    between atoms: _216  and  _217
REMARK   93  A    between atoms: _222  and  _224
REMARK   94  A    between atoms: _224  and  _225
REMARK   95  A    between atoms: _224  and  _227
REMARK   96  A    between atoms: _230  and  _232
REMARK   97  A    between atoms: _232  and  _233
REMARK   98  A    between atoms: _232  and  _235
REMARK   99  A    between atoms: _235  and  _236
REMARK  100  A    between atoms: _241  and  _243
REMARK  101  A    between atoms: _243  and  _244
REMARK  102  A    between atoms: _243  and  _246
REMARK  103  A    between atoms: _246  and  _247
REMARK  104  A    between atoms: _250  and  _252
REMARK  105  A    between atoms: _252  and  _253
REMARK  106  A    between atoms: _252  and  _255
REMARK  107  A    between atoms: _255  and  _256
REMARK  108  A    between atoms: _259  and  _261
REMARK  109  A    between atoms: _261  and  _262
REMARK  110  A    between atoms: _264  and  _266
REMARK  111  A    between atoms: _266  and  _267
REMARK  112  A    between atoms: _266  and  _269
REMARK  113  A    between atoms: _269  and  _270
REMARK  114  A    between atoms: _270  and  _271
REMARK  115  A    between atoms: _271  and  _272
REMARK  116  A    between atoms: _281  and  _283
REMARK  117  A    between atoms: _283  and  _284
REMARK  118  A    between atoms: _283  and  _286
REMARK  119  A    between atoms: _286  and  _287
REMARK  120  A    between atoms: _292  and  _294
REMARK  121  A    between atoms: _294  and  _295
REMARK  122  A    between atoms: _294  and  _297
REMARK  123  A    between atoms: _297  and  _298
REMARK  124  A    between atoms: _298  and  _299
REMARK  125  A    between atoms: _299  and  _300
REMARK  126  A    between atoms: _302  and  _303
REMARK  127  A    between atoms: _309  and  _311
REMARK  128  A    between atoms: _311  and  _312
REMARK  129  A    between atoms: _311  and  _314
REMARK  130  A    between atoms: _314  and  _315
REMARK  131  A    between atoms: _318  and  _320
REMARK  132  A    between atoms: _320  and  _321
REMARK  133  A    between atoms: _320  and  _323
REMARK  134  A    between atoms: _323  and  _324
REMARK  135  A    between atoms: _327  and  _329
REMARK  136  A    between atoms: _329  and  _330
REMARK  137  A    between atoms: _329  and  _332
REMARK  138  A    between atoms: _332  and  _333
REMARK  139  A    between atoms: _336  and  _338
REMARK  140  A    between atoms: _338  and  _339
REMARK  141  A    between atoms: _338  and  _341
REMARK  142  A    between atoms: _341  and  _342
REMARK  143  A    between atoms: _345  and  _347
REMARK  144  A    between atoms: _347  and  _348
REMARK  145  A    between atoms: _350  and  _352
REMARK  146  A    between atoms: _352  and  _353
REMARK  147  A    between atoms: _356  and  _358
REMARK  148  A    between atoms: _358  and  _359
REMARK  149  A    between atoms: _358  and  _361
REMARK  150  A    between atoms: _361  and  _362
REMARK  151  A    between atoms: _365  and  _367
REMARK  152  A    between atoms: _367  and  _368
REMARK  153  A    between atoms: _367  and  _370
REMARK  154  A    between atoms: _370  and  _371
REMARK  155  A    between atoms: _374  and  _376
REMARK  156  A    between atoms: _376  and  _377
REMARK  157  A    between atoms: _376  and  _379
REMARK  158  A    between atoms: _379  and  _380
REMARK  159  A    between atoms: _383  and  _385
REMARK  160  A    between atoms: _385  and  _386
REMARK  161  A    between atoms: _385  and  _388
REMARK  162  A    between atoms: _391  and  _393
REMARK  163  A    between atoms: _393  and  _394
REMARK  164  A    between atoms: _393  and  _396
REMARK  165  A    between atoms: _396  and  _397
REMARK  166  A    between atoms: _397  and  _398
REMARK  167  A    between atoms: _398  and  _399
REMARK  168  A    between atoms: _399  and  _400
REMARK  169  A    between atoms: _404  and  _406
REMARK  170  A    between atoms: _406  and  _407
REMARK  171  A    between atoms: _406  and  _409
REMARK  172  A    between atoms: _409  and  _410
REMARK  173  A    between atoms: _410  and  _411
REMARK  174  A    between atoms: _413  and  _415
REMARK  175  A    between atoms: _415  and  _416
REMARK  176  A    between atoms: _415  and  _418
REMARK  177  A    between atoms: _418  and  _419
REMARK  178  A    between atoms: _422  and  _424
REMARK  179  A    between atoms: _424  and  _425
REMARK  180  A    between atoms: _427  and  _429
REMARK  181  A    between atoms: _429  and  _430
REMARK  182  A    between atoms: _432  and  _434
REMARK  183  A    between atoms: _434  and  _435
REMARK  184  A    between atoms: _434  and  _437
REMARK  185  A    between atoms: _440  and  _442
REMARK  186  A    between atoms: _442  and  _443
REMARK  187  A    between atoms: _445  and  _447
REMARK  188  A    between atoms: _447  and  _448
REMARK  189  A    between atoms: _450  and  _452
REMARK  190  A    between atoms: _452  and  _453
REMARK  191  A    between atoms: _452  and  _455
REMARK  192  A    between atoms: _455  and  _456
REMARK  193  A    between atoms: _462  and  _464
REMARK  194  A    between atoms: _464  and  _465
REMARK  195  A    between atoms: _464  and  _467
REMARK  196  A    between atoms: _467  and  _468
REMARK  197  A    between atoms: _471  and  _473
REMARK  198  A    between atoms: _473  and  _474
REMARK  199  A    between atoms: _473  and  _476
REMARK  200  A    between atoms: _479  and  _481
REMARK  201  A    between atoms: _481  and  _482
REMARK  202  A    between atoms: _481  and  _484
REMARK  203  A    between atoms: _484  and  _485
REMARK  204  A    between atoms: _489  and  _490
REMARK  205  A    between atoms: _495  and  _497
REMARK  206  A    between atoms: _497  and  _498
REMARK  207  A    between atoms: _497  and  _500
REMARK  208  A    between atoms: _500  and  _501
REMARK  209  A    between atoms: _505  and  _506
REMARK  210  A    between atoms: _511  and  _513
REMARK  211  A    between atoms: _513  and  _514
REMARK  212  A    between atoms: _513  and  _516
REMARK  213  A    between atoms: _519  and  _521
REMARK  214  A    between atoms: _521  and  _522
REMARK  215  A    between atoms: _521  and  _524
REMARK  216  A    between atoms: _524  and  _525
REMARK  217  A    between atoms: _530  and  _532
REMARK  218  A    between atoms: _532  and  _533
REMARK  219  A    between atoms: _532  and  _535
REMARK  220  A    between atoms: _535  and  _536
REMARK  221  A    between atoms: _539  and  _541
REMARK  222  A    between atoms: _541  and  _542
REMARK  223  A    between atoms: _541  and  _544
REMARK  224  A    between atoms: _544  and  _545
REMARK  225  A    between atoms: _548  and  _550
REMARK  226  A    between atoms: _550  and  _551
REMARK  227  A    between atoms: _553  and  _555
REMARK  228  A    between atoms: _555  and  _556
REMARK  229  A    between atoms: _555  and  _558
REMARK  230  A    between atoms: _558  and  _559
REMARK  231  A    between atoms: _559  and  _560
REMARK  232  A    between atoms: _560  and  _561
REMARK  233  A    between atoms: _570  and  _572
REMARK  234  A    between atoms: _572  and  _573
REMARK  235  A    between atoms: _572  and  _575
REMARK  236  A    between atoms: _575  and  _576
REMARK                            x       y       z     vdW  Elec       q    Type
REMARK                         _______ _______ _______ _____ _____    ______ ____
ROOT
ATOM      1  C   GLY A   5      21.007  19.533  17.657  0.00  0.00    +0.243 C 
ATOM      2  N   VAL A   6      19.775  19.216  17.930  0.00  0.00    -0.297 N 
ATOM      3  H   VAL A   6      19.038  19.948  17.968  0.00  0.00    +0.150 HD
ATOM      4  O   GLY A   5      21.939  18.749  17.642  0.00  0.00    -0.273 OA
ENDROOT
BRANCH   1   5
ATOM      5  CA  GLY A   5      21.263  20.981  17.335  0.00  0.00    +0.176 C 
BRANCH   5   8
ATOM      6  C   GLY A   4      22.959  22.202  16.098  0.00  0.00    +0.243 C 
ATOM      7  O   GLY A   4      22.571  23.297  16.521  0.00  0.00    -0.273 OA
ATOM      8  N   GLY A   5      22.378  21.092  16.405  0.00  0.00    -0.295 N 
ATOM      9  H   GLY A   5      22.729  20.220  15.960  0.00  0.00    +0.150 HD
BRANCH   6  10
ATOM     10  CA  GLY A   4      24.183  22.090  15.250  0.00  0.00    +0.176 C 
BRANCH  10  12
ATOM     11  C   ILE A   3      24.659  23.320  13.212  0.00  0.00    +0.241 C 
ATOM     12  N   GLY A   4      24.517  23.302  14.529  0.00  0.00    -0.295 N 
ATOM     13  H   GLY A   4      24.649  24.185  15.062  0.00  0.00    +0.150 HD
ATOM     14  O   ILE A   3      24.431  22.329  12.493  0.00  0.00    -0.273 OA
BRANCH  11  15
ATOM     15  CA  ILE A   3      25.158  24.625  12.638  0.00  0.00    +0.149 C 
BRANCH  15  18
ATOM     16  C   MET A   2      27.263  24.839  11.443  0.00  0.00    +0.241 C 
ATOM     17  O   MET A   2      27.755  25.609  12.269  0.00  0.00    -0.273 OA
ATOM     18  N   ILE A   3      26.066  24.337  11.522  0.00  0.00    -0.297 N 
ATOM     19  H   ILE A   3      25.739  23.706  10.763  0.00  0.00    +0.150 HD
BRANCH  16  20
ATOM     20  CA  MET A   2      28.102  24.422  10.250  0.00  0.00    +0.149 C 
BRANCH  20  22
ATOM     21  C   LYS A   1      28.304  26.116   8.497  0.00  0.00    +0.238 C 
ATOM     22  N   MET A   2      28.690  25.626   9.660  0.00  0.00    -0.297 N 
ATOM     23  H   MET A   2      29.445  26.117  10.180  0.00  0.00    +0.150 HD
ATOM     24  O   LYS A   1      27.579  25.487   7.709  0.00  0.00    -0.274 OA
BRANCH  21  25
ATOM     25  CA  LYS A   1      28.760  27.524   8.137  0.00  0.00    +0.145 C 
BRANCH  25  26
ATOM     26  N   LYS A   1      28.877  27.593   6.687  0.00  0.00    -0.238 NA
ATOM     27  H   LYS A   1      28.213  27.046   6.102  0.00  0.00    +0.142 HD
ENDBRANCH  25  26
BRANCH  25  28
ATOM     28  CB  LYS A   1      27.782  28.578   8.671  0.00  0.00    +0.026 C 
BRANCH  28  29
ATOM     29  CG  LYS A   1      27.811  28.810  10.167  0.00  0.00    -0.000 C 
BRANCH  29  30
ATOM     30  CD  LYS A   1      26.734  29.790  10.589  0.00  0.00    -0.024 C 
BRANCH  30  31
ATOM     31  CE  LYS A   1      26.906  30.231  12.037  0.00  0.00    -0.086 C 
BRANCH  31  32
ATOM     32  NZ  LYS A   1      28.145  31.043  12.212  0.00  0.00    +0.380 N 
ATOM     33  HZ1 LYS A   1      28.234  31.328  13.208  0.00  0.00    -0.089 HD
ATOM     34  HZ2 LYS A   1      28.972  30.475  11.938  0.00  0.00    -0.089 HD
ATOM     35  HZ3 LYS A   1      28.090  31.890  11.611  0.00  0.00    -0.089 HD
ENDBRANCH  31  32
ENDBRANCH  30  31
ENDBRANCH  29  30
ENDBRANCH  28  29
ENDBRANCH  25  28
ENDBRANCH  21  25
ENDBRANCH  20  22
BRANCH  20  36
ATOM     36  CB  MET A   2      29.194  23.389  10.487  0.00  0.00    +0.041 C 
BRANCH  36  37
ATOM     37  CG  MET A   2      29.488  22.719   9.130  0.00  0.00    +0.060 C 
BRANCH  37  38
ATOM     38  SD  MET A   2      30.608  21.342   9.322  0.00  0.00    -0.139 S 
ATOM     39  CE  MET A   2      29.767  20.282  10.487  0.00  0.00    +0.069 C 
ENDBRANCH  37  38
ENDBRANCH  36  37
ENDBRANCH  20  36
ENDBRANCH  16  20
ENDBRANCH  15  18
BRANCH  15  40
ATOM     40  CB  ILE A   3      23.995  25.516  12.225  0.00  0.00    +0.027 C 
ATOM     41  CG2 ILE A   3      24.508  26.907  11.962  0.00  0.00    +0.002 C 
BRANCH  40  42
ATOM     42  CG1 ILE A   3      23.194  24.940  11.063  0.00  0.00    +0.002 C 
ATOM     43  CD1 ILE A   3      21.885  25.627  10.727  0.00  0.00    +0.000 C 
ENDBRANCH  40  42
ENDBRANCH  15  40
ENDBRANCH  11  15
ENDBRANCH  10  12
ENDBRANCH   6  10
ENDBRANCH   5   8
ENDBRANCH   1   5
BRANCH   2  44
ATOM     44  CA  VAL A   6      19.441  17.807  18.184  0.00  0.00    +0.149 C 
BRANCH  44  45
ATOM     45  C   VAL A   6      19.768  17.006  16.941  0.00  0.00    +0.241 C 
ATOM     46  N   GLY A   7      20.502  15.923  17.109  0.00  0.00    -0.295 N 
ATOM     47  H   GLY A   7      20.790  15.642  18.068  0.00  0.00    +0.150 HD
ATOM     48  O   VAL A   6      19.397  17.411  15.825  0.00  0.00    -0.273 OA
BRANCH  46  49
ATOM     49  CA  GLY A   7      20.910  15.124  15.983  0.00  0.00    +0.176 C 
BRANCH  49  50
ATOM     50  C   GLY A   7      22.221  15.516  15.377  0.00  0.00    +0.243 C 
ATOM     51  N   GLY A   8      22.862  16.598  15.752  0.00  0.00    -0.295 N 
ATOM     52  H   GLY A   8      22.416  17.216  16.460  0.00  0.00    +0.150 HD
ATOM     53  O   GLY A   7      22.674  14.812  14.493  0.00  0.00    -0.273 OA
BRANCH  51  54
ATOM     54  CA  GLY A   8      24.154  16.974  15.231  0.00  0.00    +0.176 C 
BRANCH  54  55
ATOM     55  C   GLY A   8      24.140  18.173  14.314  0.00  0.00    +0.243 C 
ATOM     56  O   GLY A   8      23.285  19.062  14.491  0.00  0.00    -0.273 OA
ATOM     57  N   PHE A   9      25.033  18.205  13.337  0.00  0.00    -0.297 N 
ATOM     58  H   PHE A   9      25.578  17.341  13.144  0.00  0.00    +0.150 HD
BRANCH  57  59
ATOM     59  CA  PHE A   9      25.294  19.368  12.525  0.00  0.00    +0.153 C 
BRANCH  59  60
ATOM     60  C   PHE A   9      24.902  19.182  11.073  0.00  0.00    +0.241 C 
ATOM     61  O   PHE A   9      24.943  18.067  10.556  0.00  0.00    -0.273 OA
ATOM     62  N   ILE A  10      24.581  20.303  10.440  0.00  0.00    -0.298 N 
ATOM     63  H   ILE A  10      24.443  21.168  11.000  0.00  0.00    +0.150 HD
BRANCH  62  64
ATOM     64  CA  ILE A  10      24.414  20.374   9.001  0.00  0.00    +0.137 C 
BRANCH  64  65
ATOM     65  CB  ILE A  10      22.961  20.485   8.512  0.00  0.00    +0.026 C 
ATOM     66  CG2 ILE A  10      22.226  19.219   8.868  0.00  0.00    +0.002 C 
BRANCH  65  67
ATOM     67  CG1 ILE A  10      22.244  21.707   9.036  0.00  0.00    +0.002 C 
ATOM     68  CD1 ILE A  10      20.877  21.972   8.349  0.00  0.00    +0.000 C 
ENDBRANCH  65  67
ENDBRANCH  64  65
BRANCH  64  69
ATOM     69  C   ILE A  10      25.220  21.561   8.480  0.00  0.00    +0.227 C 
ATOM     70  O   ILE A  10      25.471  22.550   9.198  0.00  0.00    -0.286 OA
ENDBRANCH  64  69
ENDBRANCH  62  64
ENDBRANCH  59  60
BRANCH  59  71
ATOM     71  CB  PHE A   9      26.769  19.741  12.564  0.00  0.00    +0.055 C 
BRANCH  71  72
ATOM     72  CG  PHE A   9      27.250  20.264  13.894  0.00  0.00    -0.020 A 
ATOM     73  CD2 PHE A   9      27.534  19.391  14.925  0.00  0.00    -0.004 A 
ATOM     74  CE2 PHE A   9      28.000  19.890  16.122  0.00  0.00    -0.000 A 
ATOM     75  CZ  PHE A   9      28.157  21.250  16.299  0.00  0.00    -0.000 A 
ATOM     76  CE1 PHE A   9      27.882  22.109  15.279  0.00  0.00    -0.000 A 
ATOM     77  CD1 PHE A   9      27.442  21.600  14.072  0.00  0.00    -0.004 A 
ENDBRANCH  71  72
ENDBRANCH  59  71
ENDBRANCH  57  59
ENDBRANCH  54  55
ENDBRANCH  51  54
ENDBRANCH  49  50
ENDBRANCH  46  49
ENDBRANCH  44  45
BRANCH  44  78
ATOM     78  CB  VAL A   6      17.981  17.651  18.607  0.00  0.00    +0.027 C 
ATOM     79  CG2 VAL A   6      17.735  18.279  19.966  0.00  0.00    +0.002 C 
ATOM     80  CG1 VAL A   6      17.556  16.180  18.629  0.00  0.00    +0.002 C 
ENDBRANCH  44  78
ENDBRANCH   2  44
TORSDOF 35
REMARK  Name = ../refined-set-2016/2avq/2avq_pocket.pdb
REMARK  236 active torsions:
REMARK  status: ('A' for Active; 'I' for Inactive)
REMARK    1  A    between atoms: _1  and  _3
REMARK    2  A    between atoms: _3  and  _4
REMARK    3  A    between atoms: _3  and  _6
REMARK    4  A    between atoms: _6  and  _7
REMARK    5  A    between atoms: _7  and  _8
REMARK    6  A    between atoms: _8  and  _9
REMARK    7  A    between atoms: _18  and  _20
REMARK    8  A    between atoms: _20  and  _21
REMARK    9  A    between atoms: _20  and  _23
REMARK   10  A    between atoms: _23  and  _24
REMARK   11  A    between atoms: _27  and  _29
REMARK   12  A    between atoms: _29  and  _30
REMARK   13  A    between atoms: _29  and  _32
REMARK   14  A    between atoms: _32  and  _33
REMARK   15  A    between atoms: _36  and  _38
REMARK   16  A    between atoms: _38  and  _39
REMARK   17  A    between atoms: _38  and  _41
REMARK   18  A    between atoms: _41  and  _42
REMARK   19  A    between atoms: _45  and  _47
REMARK   20  A    between atoms: _47  and  _48
REMARK   21  A    between atoms: _47  and  _50
REMARK   22  A    between atoms: _50  and  _51
REMARK   23  A    between atoms: _54  and  _56
REMARK   24  A    between atoms: _56  and  _57
REMARK   25  A    between atoms: _56  and  _59
REMARK   26  A    between atoms: _59  and  _60
REMARK   27  A    between atoms: _63  and  _65
REMARK   28  A    between atoms: _65  and  _66
REMARK   29  A    between atoms: _68  and  _70
REMARK   30  A    between atoms: _70  and  _71
REMARK   31  A    between atoms: _74  and  _76
REMARK   32  A    between atoms: _76  and  _77
REMARK   33  A    between atoms: _76  and  _79
REMARK   34  A    between atoms: _79  and  _80
REMARK   35  A    between atoms: _83  and  _85
REMARK   36  A    between atoms: _85  and  _86
REMARK   37  A    between atoms: _85  and  _88
REMARK   38  A    between atoms: _88  and  _89
REMARK   39  A    between atoms: _92  and  _94
REMARK   40  A    between atoms: _94  and  _95
REMARK   41  A    between atoms: _94  and  _97
REMARK   42  A    between atoms: _97  and  _98
REMARK   43  A    between atoms: _101  and  _103
REMARK   44  A    between atoms: _103  and  _104
REMARK   45  A    between atoms: _103  and  _106
REMARK   46  A    between atoms: _109  and  _111
REMARK   47  A    between atoms: _111  and  _112
REMARK   48  A    between atoms: _111  and  _114
REMARK   49  A    between atoms: _114  and  _115
REMARK   50  A    between atoms: _115  and  _116
REMARK   51  A    between atoms: _116  and  _117
REMARK   52  A    between atoms: _117  and  _118
REMARK   53  A    between atoms: _122  and  _124
REMARK   54  A    between atoms: _124  and  _125
REMARK   55  A    between atoms: _124  and  _127
REMARK   56  A    between atoms: _127  and  _128
REMARK   57  A    between atoms: _128  and  _129
REMARK   58  A    between atoms: _131  and  _133
REMARK   59  A    between atoms: _133  and  _134
REMARK   60  A    between atoms: _133  and  _136
REMARK   61  A    between atoms: _136  and  _137
REMARK   62  A    between atoms: _140  and  _142
REMARK   63  A    between atoms: _142  and  _143
REMARK   64  A    between atoms: _145  and  _147
REMARK   65  A    between atoms: _147  and  _148
REMARK   66  A    between atoms: _150  and  _152
REMARK   67  A    between atoms: _152  and  _153
REMARK   68  A    between atoms: _152  and  _155
REMARK   69  A    between atoms: _158  and  _160
REMARK   70  A    between atoms: _160  and  _161
REMARK   71  A    between atoms: _163  and  _165
REMARK   72  A    between atoms: _165  and  _166
REMARK   73  A    between atoms: _168  and  _170
REMARK   74  A    between atoms: _170  and  _171
REMARK   75  A    between atoms: _170  and  _173
REMARK   76  A    between atoms: _173  and  _174
REMARK   77  A    between atoms: _180  and  _182
REMARK   78  A    between atoms: _182  and  _183
REMARK   79  A    between atoms: _182  and  _185
REMARK   80  A    between atoms: _185  and  _186
REMARK   81  A    between atoms: _189  and  _191
REMARK   82  A    between atoms: _191  and  _192
REMARK   83  A    between atoms: _191  and  _194
REMARK   84  A    between atoms: _197  and  _199
REMARK   85  A    between atoms: _199  and  _200
REMARK   86  A    between atoms: _199  and  _202
REMARK   87  A    between atoms: _202  and  _203
REMARK   88  A    between atoms: _206  and  _208
REMARK   89  A    between atoms: _208  and  _209
REMARK   90  A    between atoms: _208  and  _211
REMARK   91  A    between atoms: _211  and  _212
REMARK   92  A    between atoms: _216  and  _217
REMARK   93  A    between atoms: _222  and  _224
REMARK   94  A    between atoms: _224  and  _225
REMARK   95  A    between atoms: _224  and  _227
REMARK   96  A    between atoms: _230  and  _232
REMARK   97  A    between atoms: _232  and  _233
REMARK   98  A    between atoms: _232  and  _235
REMARK   99  A    between atoms: _235  and  _236
REMARK  100  A    between atoms: _241  and  _243
REMARK  101  A    between atoms: _243  and  _244
REMARK  102  A    between atoms: _243  and  _246
REMARK  103  A    between atoms: _246  and  _247
REMARK  104  A    between atoms: _250  and  _252
REMARK  105  A    between atoms: _252  and  _253
REMARK  106  A    between atoms: _252  and  _255
REMARK  107  A    between atoms: _255  and  _256
REMARK  108  A    between atoms: _259  and  _261
REMARK  109  A    between atoms: _261  and  _262
REMARK  110  A    between atoms: _264  and  _266
REMARK  111  A    between atoms: _266  and  _267
REMARK  112  A    between atoms: _266  and  _269
REMARK  113  A    between atoms: _269  and  _270
REMARK  114  A    between atoms: _270  and  _271
REMARK  115  A    between atoms: _271  and  _272
REMARK  116  A    between atoms: _281  and  _283
REMARK  117  A    between atoms: _283  and  _284
REMARK  118  A    between atoms: _283  and  _286
REMARK  119  A    between atoms: _286  and  _287
REMARK  120  A    between atoms: _292  and  _294
REMARK  121  A    between atoms: _294  and  _295
REMARK  122  A    between atoms: _294  and  _297
REMARK  123  A    between atoms: _297  and  _298
REMARK  124  A    between atoms: _298  and  _299
REMARK  125  A    between atoms: _299  and  _300
REMARK  126  A    between atoms: _302  and  _303
REMARK  127  A    between atoms: _309  and  _311
REMARK  128  A    between atoms: _311  and  _312
REMARK  129  A    between atoms: _311  and  _314
REMARK  130  A    between atoms: _314  and  _315
REMARK  131  A    between atoms: _318  and  _320
REMARK  132  A    between atoms: _320  and  _321
REMARK  133  A    between atoms: _320  and  _323
REMARK  134  A    between atoms: _323  and  _324
REMARK  135  A    between atoms: _327  and  _329
REMARK  136  A    between atoms: _329  and  _330
REMARK  137  A    between atoms: _329  and  _332
REMARK  138  A    between atoms: _332  and  _333
REMARK  139  A    between atoms: _336  and  _338
REMARK  140  A    between atoms: _338  and  _339
REMARK  141  A    between atoms: _338  and  _341
REMARK  142  A    between atoms: _341  and  _342
REMARK  143  A    between atoms: _345  and  _347
REMARK  144  A    between atoms: _347  and  _348
REMARK  145  A    between atoms: _350  and  _352
REMARK  146  A    between atoms: _352  and  _353
REMARK  147  A    between atoms: _356  and  _358
REMARK  148  A    between atoms: _358  and  _359
REMARK  149  A    between atoms: _358  and  _361
REMARK  150  A    between atoms: _361  and  _362
REMARK  151  A    between atoms: _365  and  _367
REMARK  152  A    between atoms: _367  and  _368
REMARK  153  A    between atoms: _367  and  _370
REMARK  154  A    between atoms: _370  and  _371
REMARK  155  A    between atoms: _374  and  _376
REMARK  156  A    between atoms: _376  and  _377
REMARK  157  A    between atoms: _376  and  _379
REMARK  158  A    between atoms: _379  and  _380
REMARK  159  A    between atoms: _383  and  _385
REMARK  160  A    between atoms: _385  and  _386
REMARK  161  A    between atoms: _385  and  _388
REMARK  162  A    between atoms: _391  and  _393
REMARK  163  A    between atoms: _393  and  _394
REMARK  164  A    between atoms: _393  and  _396
REMARK  165  A    between atoms: _396  and  _397
REMARK  166  A    between atoms: _397  and  _398
REMARK  167  A    between atoms: _398  and  _399
REMARK  168  A    between atoms: _399  and  _400
REMARK  169  A    between atoms: _404  and  _406
REMARK  170  A    between atoms: _406  and  _407
REMARK  171  A    between atoms: _406  and  _409
REMARK  172  A    between atoms: _409  and  _410
REMARK  173  A    between atoms: _410  and  _411
REMARK  174  A    between atoms: _413  and  _415
REMARK  175  A    between atoms: _415  and  _416
REMARK  176  A    between atoms: _415  and  _418
REMARK  177  A    between atoms: _418  and  _419
REMARK  178  A    between atoms: _422  and  _424
REMARK  179  A    between atoms: _424  and  _425
REMARK  180  A    between atoms: _427  and  _429
REMARK  181  A    between atoms: _429  and  _430
REMARK  182  A    between atoms: _432  and  _434
REMARK  183  A    between atoms: _434  and  _435
REMARK  184  A    between atoms: _434  and  _437
REMARK  185  A    between atoms: _440  and  _442
REMARK  186  A    between atoms: _442  and  _443
REMARK  187  A    between atoms: _445  and  _447
REMARK  188  A    between atoms: _447  and  _448
REMARK  189  A    between atoms: _450  and  _452
REMARK  190  A    between atoms: _452  and  _453
REMARK  191  A    between atoms: _452  and  _455
REMARK  192  A    between atoms: _455  and  _456
REMARK  193  A    between atoms: _462  and  _464
REMARK  194  A    between atoms: _464  and  _465
REMARK  195  A    between atoms: _464  and  _467
REMARK  196  A    between atoms: _467  and  _468
REMARK  197  A    between atoms: _471  and  _473
REMARK  198  A    between atoms: _473  and  _474
REMARK  199  A    between atoms: _473  and  _476
REMARK  200  A    between atoms: _479  and  _481
REMARK  201  A    between atoms: _481  and  _482
REMARK  202  A    between atoms: _481  and  _484
REMARK  203  A    between atoms: _484  and  _485
REMARK  204  A    between atoms: _489  and  _490
REMARK  205  A    between atoms: _495  and  _497
REMARK  206  A    between atoms: _497  and  _498
REMARK  207  A    between atoms: _497  and  _500
REMARK  208  A    between atoms: _500  and  _501
REMARK  209  A    between atoms: _505  and  _506
REMARK  210  A    between atoms: _511  and  _513
REMARK  211  A    between atoms: _513  and  _514
REMARK  212  A    between atoms: _513  and  _516
REMARK  213  A    between atoms: _519  and  _521
REMARK  214  A    between atoms: _521  and  _522
REMARK  215  A    between atoms: _521  and  _524
REMARK  216  A    between atoms: _524  and  _525
REMARK  217  A    between atoms: _530  and  _532
REMARK  218  A    between atoms: _532  and  _533
REMARK  219  A    between atoms: _532  and  _535
REMARK  220  A    between atoms: _535  and  _536
REMARK  221  A    between atoms: _539  and  _541
REMARK  222  A    between atoms: _541  and  _542
REMARK  223  A    between atoms: _541  and  _544
REMARK  224  A    between atoms: _544  and  _545
REMARK  225  A    between atoms: _548  and  _550
REMARK  226  A    between atoms: _550  and  _551
REMARK  227  A    between atoms: _553  and  _555
REMARK  228  A    between atoms: _555  and  _556
REMARK  229  A    between atoms: _555  and  _558
REMARK  230  A    between atoms: _558  and  _559
REMARK  231  A    between atoms: _559  and  _560
REMARK  232  A    between atoms: _560  and  _561
REMARK  233  A    between atoms: _570  and  _572
REMARK  234  A    between atoms: _572  and  _573
REMARK  235  A    between atoms: _572  and  _575
REMARK  236  A    between atoms: _575  and  _576
REMARK                            x       y       z     vdW  Elec       q    Type
REMARK                         _______ _______ _______ _____ _____    ______ ____
ROOT
ATOM      1  CA  VAL A   1      24.631  25.709   5.332  0.00  0.00    +0.133 C 
ENDROOT
BRANCH   1   2
ATOM      2  CB  VAL A   1      23.700  26.323   6.393  0.00  0.00    +0.023 C 
ATOM      3  CG2 VAL A   1      24.468  27.020   7.482  0.00  0.00    +0.002 C 
ATOM      4  CG1 VAL A   1      22.810  25.249   7.044  0.00  0.00    +0.002 C 
ENDBRANCH   1   2
BRANCH   1   5
ATOM      5  N   VAL A   1      25.503  24.714   5.903  0.00  0.00    -0.239 NA
ATOM      6  H   VAL A   1      26.320  25.052   6.451  0.00  0.00    +0.142 HD
ENDBRANCH   1   5
BRANCH   1   7
ATOM      7  C   VAL A   1      25.460  26.803   4.644  0.00  0.00    +0.224 C 
ATOM      8  O   VAL A   1      26.648  26.926   4.864  0.00  0.00    -0.287 OA
ENDBRANCH   1   7
TORSDOF 3
REMARK  Name = ../refined-set-2016/2avq/2avq_pocket.pdb
REMARK  236 active torsions:
REMARK  status: ('A' for Active; 'I' for Inactive)
REMARK    1  A    between atoms: _1  and  _3
REMARK    2  A    between atoms: _3  and  _4
REMARK    3  A    between atoms: _3  and  _6
REMARK    4  A    between atoms: _6  and  _7
REMARK    5  A    between atoms: _7  and  _8
REMARK    6  A    between atoms: _8  and  _9
REMARK    7  A    between atoms: _18  and  _20
REMARK    8  A    between atoms: _20  and  _21
REMARK    9  A    between atoms: _20  and  _23
REMARK   10  A    between atoms: _23  and  _24
REMARK   11  A    between atoms: _27  and  _29
REMARK   12  A    between atoms: _29  and  _30
REMARK   13  A    between atoms: _29  and  _32
REMARK   14  A    between atoms: _32  and  _33
REMARK   15  A    between atoms: _36  and  _38
REMARK   16  A    between atoms: _38  and  _39
REMARK   17  A    between atoms: _38  and  _41
REMARK   18  A    between atoms: _41  and  _42
REMARK   19  A    between atoms: _45  and  _47
REMARK   20  A    between atoms: _47  and  _48
REMARK   21  A    between atoms: _47  and  _50
REMARK   22  A    between atoms: _50  and  _51
REMARK   23  A    between atoms: _54  and  _56
REMARK   24  A    between atoms: _56  and  _57
REMARK   25  A    between atoms: _56  and  _59
REMARK   26  A    between atoms: _59  and  _60
REMARK   27  A    between atoms: _63  and  _65
REMARK   28  A    between atoms: _65  and  _66
REMARK   29  A    between atoms: _68  and  _70
REMARK   30  A    between atoms: _70  and  _71
REMARK   31  A    between atoms: _74  and  _76
REMARK   32  A    between atoms: _76  and  _77
REMARK   33  A    between atoms: _76  and  _79
REMARK   34  A    between atoms: _79  and  _80
REMARK   35  A    between atoms: _83  and  _85
REMARK   36  A    between atoms: _85  and  _86
REMARK   37  A    between atoms: _85  and  _88
REMARK   38  A    between atoms: _88  and  _89
REMARK   39  A    between atoms: _92  and  _94
REMARK   40  A    between atoms: _94  and  _95
REMARK   41  A    between atoms: _94  and  _97
REMARK   42  A    between atoms: _97  and  _98
REMARK   43  A    between atoms: _101  and  _103
REMARK   44  A    between atoms: _103  and  _104
REMARK   45  A    between atoms: _103  and  _106
REMARK   46  A    between atoms: _109  and  _111
REMARK   47  A    between atoms: _111  and  _112
REMARK   48  A    between atoms: _111  and  _114
REMARK   49  A    between atoms: _114  and  _115
REMARK   50  A    between atoms: _115  and  _116
REMARK   51  A    between atoms: _116  and  _117
REMARK   52  A    between atoms: _117  and  _118
REMARK   53  A    between atoms: _122  and  _124
REMARK   54  A    between atoms: _124  and  _125
REMARK   55  A    between atoms: _124  and  _127
REMARK   56  A    between atoms: _127  and  _128
REMARK   57  A    between atoms: _128  and  _129
REMARK   58  A    between atoms: _131  and  _133
REMARK   59  A    between atoms: _133  and  _134
REMARK   60  A    between atoms: _133  and  _136
REMARK   61  A    between atoms: _136  and  _137
REMARK   62  A    between atoms: _140  and  _142
REMARK   63  A    between atoms: _142  and  _143
REMARK   64  A    between atoms: _145  and  _147
REMARK   65  A    between atoms: _147  and  _148
REMARK   66  A    between atoms: _150  and  _152
REMARK   67  A    between atoms: _152  and  _153
REMARK   68  A    between atoms: _152  and  _155
REMARK   69  A    between atoms: _158  and  _160
REMARK   70  A    between atoms: _160  and  _161
REMARK   71  A    between atoms: _163  and  _165
REMARK   72  A    between atoms: _165  and  _166
REMARK   73  A    between atoms: _168  and  _170
REMARK   74  A    between atoms: _170  and  _171
REMARK   75  A    between atoms: _170  and  _173
REMARK   76  A    between atoms: _173  and  _174
REMARK   77  A    between atoms: _180  and  _182
REMARK   78  A    between atoms: _182  and  _183
REMARK   79  A    between atoms: _182  and  _185
REMARK   80  A    between atoms: _185  and  _186
REMARK   81  A    between atoms: _189  and  _191
REMARK   82  A    between atoms: _191  and  _192
REMARK   83  A    between atoms: _191  and  _194
REMARK   84  A    between atoms: _197  and  _199
REMARK   85  A    between atoms: _199  and  _200
REMARK   86  A    between atoms: _199  and  _202
REMARK   87  A    between atoms: _202  and  _203
REMARK   88  A    between atoms: _206  and  _208
REMARK   89  A    between atoms: _208  and  _209
REMARK   90  A    between atoms: _208  and  _211
REMARK   91  A    between atoms: _211  and  _212
REMARK   92  A    between atoms: _216  and  _217
REMARK   93  A    between atoms: _222  and  _224
REMARK   94  A    between atoms: _224  and  _225
REMARK   95  A    between atoms: _224  and  _227
REMARK   96  A    between atoms: _230  and  _232
REMARK   97  A    between atoms: _232  and  _233
REMARK   98  A    between atoms: _232  and  _235
REMARK   99  A    between atoms: _235  and  _236
REMARK  100  A    between atoms: _241  and  _243
REMARK  101  A    between atoms: _243  and  _244
REMARK  102  A    between atoms: _243  and  _246
REMARK  103  A    between atoms: _246  and  _247
REMARK  104  A    between atoms: _250  and  _252
REMARK  105  A    between atoms: _252  and  _253
REMARK  106  A    between atoms: _252  and  _255
REMARK  107  A    between atoms: _255  and  _256
REMARK  108  A    between atoms: _259  and  _261
REMARK  109  A    between atoms: _261  and  _262
REMARK  110  A    between atoms: _264  and  _266
REMARK  111  A    between atoms: _266  and  _267
REMARK  112  A    between atoms: _266  and  _269
REMARK  113  A    between atoms: _269  and  _270
REMARK  114  A    between atoms: _270  and  _271
REMARK  115  A    between atoms: _271  and  _272
REMARK  116  A    between atoms: _281  and  _283
REMARK  117  A    between atoms: _283  and  _284
REMARK  118  A    between atoms: _283  and  _286
REMARK  119  A    between atoms: _286  and  _287
REMARK  120  A    between atoms: _292  and  _294
REMARK  121  A    between atoms: _294  and  _295
REMARK  122  A    between atoms: _294  and  _297
REMARK  123  A    between atoms: _297  and  _298
REMARK  124  A    between atoms: _298  and  _299
REMARK  125  A    between atoms: _299  and  _300
REMARK  126  A    between atoms: _302  and  _303
REMARK  127  A    between atoms: _309  and  _311
REMARK  128  A    between atoms: _311  and  _312
REMARK  129  A    between atoms: _311  and  _314
REMARK  130  A    between atoms: _314  and  _315
REMARK  131  A    between atoms: _318  and  _320
REMARK  132  A    between atoms: _320  and  _321
REMARK  133  A    between atoms: _320  and  _323
REMARK  134  A    between atoms: _323  and  _324
REMARK  135  A    between atoms: _327  and  _329
REMARK  136  A    between atoms: _329  and  _330
REMARK  137  A    between atoms: _329  and  _332
REMARK  138  A    between atoms: _332  and  _333
REMARK  139  A    between atoms: _336  and  _338
REMARK  140  A    between atoms: _338  and  _339
REMARK  141  A    between atoms: _338  and  _341
REMARK  142  A    between atoms: _341  and  _342
REMARK  143  A    between atoms: _345  and  _347
REMARK  144  A    between atoms: _347  and  _348
REMARK  145  A    between atoms: _350  and  _352
REMARK  146  A    between atoms: _352  and  _353
REMARK  147  A    between atoms: _356  and  _358
REMARK  148  A    between atoms: _358  and  _359
REMARK  149  A    between atoms: _358  and  _361
REMARK  150  A    between atoms: _361  and  _362
REMARK  151  A    between atoms: _365  and  _367
REMARK  152  A    between atoms: _367  and  _368
REMARK  153  A    between atoms: _367  and  _370
REMARK  154  A    between atoms: _370  and  _371
REMARK  155  A    between atoms: _374  and  _376
REMARK  156  A    between atoms: _376  and  _377
REMARK  157  A    between atoms: _376  and  _379
REMARK  158  A    between atoms: _379  and  _380
REMARK  159  A    between atoms: _383  and  _385
REMARK  160  A    between atoms: _385  and  _386
REMARK  161  A    between atoms: _385  and  _388
REMARK  162  A    between atoms: _391  and  _393
REMARK  163  A    between atoms: _393  and  _394
REMARK  164  A    between atoms: _393  and  _396
REMARK  165  A    between atoms: _396  and  _397
REMARK  166  A    between atoms: _397  and  _398
REMARK  167  A    between atoms: _398  and  _399
REMARK  168  A    between atoms: _399  and  _400
REMARK  169  A    between atoms: _404  and  _406
REMARK  170  A    between atoms: _406  and  _407
REMARK  171  A    between atoms: _406  and  _409
REMARK  172  A    between atoms: _409  and  _410
REMARK  173  A    between atoms: _410  and  _411
REMARK  174  A    between atoms: _413  and  _415
REMARK  175  A    between atoms: _415  and  _416
REMARK  176  A    between atoms: _415  and  _418
REMARK  177  A    between atoms: _418  and  _419
REMARK  178  A    between atoms: _422  and  _424
REMARK  179  A    between atoms: _424  and  _425
REMARK  180  A    between atoms: _427  and  _429
REMARK  181  A    between atoms: _429  and  _430
REMARK  182  A    between atoms: _432  and  _434
REMARK  183  A    between atoms: _434  and  _435
REMARK  184  A    between atoms: _434  and  _437
REMARK  185  A    between atoms: _440  and  _442
REMARK  186  A    between atoms: _442  and  _443
REMARK  187  A    between atoms: _445  and  _447
REMARK  188  A    between atoms: _447  and  _448
REMARK  189  A    between atoms: _450  and  _452
REMARK  190  A    between atoms: _452  and  _453
REMARK  191  A    between atoms: _452  and  _455
REMARK  192  A    between atoms: _455  and  _456
REMARK  193  A    between atoms: _462  and  _464
REMARK  194  A    between atoms: _464  and  _465
REMARK  195  A    between atoms: _464  and  _467
REMARK  196  A    between atoms: _467  and  _468
REMARK  197  A    between atoms: _471  and  _473
REMARK  198  A    between atoms: _473  and  _474
REMARK  199  A    between atoms: _473  and  _476
REMARK  200  A    between atoms: _479  and  _481
REMARK  201  A    between atoms: _481  and  _482
REMARK  202  A    between atoms: _481  and  _484
REMARK  203  A    between atoms: _484  and  _485
REMARK  204  A    between atoms: _489  and  _490
REMARK  205  A    between atoms: _495  and  _497
REMARK  206  A    between atoms: _497  and  _498
REMARK  207  A    between atoms: _497  and  _500
REMARK  208  A    between atoms: _500  and  _501
REMARK  209  A    between atoms: _505  and  _506
REMARK  210  A    between atoms: _511  and  _513
REMARK  211  A    between atoms: _513  and  _514
REMARK  212  A    between atoms: _513  and  _516
REMARK  213  A    between atoms: _519  and  _521
REMARK  214  A    between atoms: _521  and  _522
REMARK  215  A    between atoms: _521  and  _524
REMARK  216  A    between atoms: _524  and  _525
REMARK  217  A    between atoms: _530  and  _532
REMARK  218  A    between atoms: _532  and  _533
REMARK  219  A    between atoms: _532  and  _535
REMARK  220  A    between atoms: _535  and  _536
REMARK  221  A    between atoms: _539  and  _541
REMARK  222  A    between atoms: _541  and  _542
REMARK  223  A    between atoms: _541  and  _544
REMARK  224  A    between atoms: _544  and  _545
REMARK  225  A    between atoms: _548  and  _550
REMARK  226  A    between atoms: _550  and  _551
REMARK  227  A    between atoms: _553  and  _555
REMARK  228  A    between atoms: _555  and  _556
REMARK  229  A    between atoms: _555  and  _558
REMARK  230  A    between atoms: _558  and  _559
REMARK  231  A    between atoms: _559  and  _560
REMARK  232  A    between atoms: _560  and  _561
REMARK  233  A    between atoms: _570  and  _572
REMARK  234  A    between atoms: _572  and  _573
REMARK  235  A    between atoms: _572  and  _575
REMARK  236  A    between atoms: _575  and  _576
REMARK                            x       y       z     vdW  Elec       q    Type
REMARK                         _______ _______ _______ _____ _____    ______ ____
ROOT
ATOM      1  CA  LEU A   1      21.332  30.476   6.521  0.00  0.00    +0.133 C 
ENDROOT
BRANCH   1   2
ATOM      2  N   LEU A   1      20.600  31.668   6.895  0.00  0.00    -0.239 NA
ATOM      3  H   LEU A   1      19.917  31.618   7.677  0.00  0.00    +0.142 HD
ENDBRANCH   1   2
BRANCH   1   4
ATOM      4  C   LEU A   1      20.467  29.581   5.662  0.00  0.00    +0.224 C 
ATOM      5  O   LEU A   1      19.276  29.452   5.959  0.00  0.00    -0.287 OA
ENDBRANCH   1   4
BRANCH   1   6
ATOM      6  CB  LEU A   1      21.761  29.711   7.778  0.00  0.00    +0.025 C 
BRANCH   6   7
ATOM      7  CG  LEU A   1      22.455  30.540   8.872  0.00  0.00    +0.002 C 
ATOM      8  CD2 LEU A   1      22.790  29.662  10.065  0.00  0.00    +0.000 C 
ATOM      9  CD1 LEU A   1      23.694  31.251   8.323  0.00  0.00    +0.000 C 
ENDBRANCH   6   7
ENDBRANCH   1   6
TORSDOF 4
REMARK  Name = ../refined-set-2016/2avq/2avq_pocket.pdb
REMARK  236 active torsions:
REMARK  status: ('A' for Active; 'I' for Inactive)
REMARK    1  A    between atoms: _1  and  _3
REMARK    2  A    between atoms: _3  and  _4
REMARK    3  A    between atoms: _3  and  _6
REMARK    4  A    between atoms: _6  and  _7
REMARK    5  A    between atoms: _7  and  _8
REMARK    6  A    between atoms: _8  and  _9
REMARK    7  A    between atoms: _18  and  _20
REMARK    8  A    between atoms: _20  and  _21
REMARK    9  A    between atoms: _20  and  _23
REMARK   10  A    between atoms: _23  and  _24
REMARK   11  A    between atoms: _27  and  _29
REMARK   12  A    between atoms: _29  and  _30
REMARK   13  A    between atoms: _29  and  _32
REMARK   14  A    between atoms: _32  and  _33
REMARK   15  A    between atoms: _36  and  _38
REMARK   16  A    between atoms: _38  and  _39
REMARK   17  A    between atoms: _38  and  _41
REMARK   18  A    between atoms: _41  and  _42
REMARK   19  A    between atoms: _45  and  _47
REMARK   20  A    between atoms: _47  and  _48
REMARK   21  A    between atoms: _47  and  _50
REMARK   22  A    between atoms: _50  and  _51
REMARK   23  A    between atoms: _54  and  _56
REMARK   24  A    between atoms: _56  and  _57
REMARK   25  A    between atoms: _56  and  _59
REMARK   26  A    between atoms: _59  and  _60
REMARK   27  A    between atoms: _63  and  _65
REMARK   28  A    between atoms: _65  and  _66
REMARK   29  A    between atoms: _68  and  _70
REMARK   30  A    between atoms: _70  and  _71
REMARK   31  A    between atoms: _74  and  _76
REMARK   32  A    between atoms: _76  and  _77
REMARK   33  A    between atoms: _76  and  _79
REMARK   34  A    between atoms: _79  and  _80
REMARK   35  A    between atoms: _83  and  _85
REMARK   36  A    between atoms: _85  and  _86
REMARK   37  A    between atoms: _85  and  _88
REMARK   38  A    between atoms: _88  and  _89
REMARK   39  A    between atoms: _92  and  _94
REMARK   40  A    between atoms: _94  and  _95
REMARK   41  A    between atoms: _94  and  _97
REMARK   42  A    between atoms: _97  and  _98
REMARK   43  A    between atoms: _101  and  _103
REMARK   44  A    between atoms: _103  and  _104
REMARK   45  A    between atoms: _103  and  _106
REMARK   46  A    between atoms: _109  and  _111
REMARK   47  A    between atoms: _111  and  _112
REMARK   48  A    between atoms: _111  and  _114
REMARK   49  A    between atoms: _114  and  _115
REMARK   50  A    between atoms: _115  and  _116
REMARK   51  A    between atoms: _116  and  _117
REMARK   52  A    between atoms: _117  and  _118
REMARK   53  A    between atoms: _122  and  _124
REMARK   54  A    between atoms: _124  and  _125
REMARK   55  A    between atoms: _124  and  _127
REMARK   56  A    between atoms: _127  and  _128
REMARK   57  A    between atoms: _128  and  _129
REMARK   58  A    between atoms: _131  and  _133
REMARK   59  A    between atoms: _133  and  _134
REMARK   60  A    between atoms: _133  and  _136
REMARK   61  A    between atoms: _136  and  _137
REMARK   62  A    between atoms: _140  and  _142
REMARK   63  A    between atoms: _142  and  _143
REMARK   64  A    between atoms: _145  and  _147
REMARK   65  A    between atoms: _147  and  _148
REMARK   66  A    between atoms: _150  and  _152
REMARK   67  A    between atoms: _152  and  _153
REMARK   68  A    between atoms: _152  and  _155
REMARK   69  A    between atoms: _158  and  _160
REMARK   70  A    between atoms: _160  and  _161
REMARK   71  A    between atoms: _163  and  _165
REMARK   72  A    between atoms: _165  and  _166
REMARK   73  A    between atoms: _168  and  _170
REMARK   74  A    between atoms: _170  and  _171
REMARK   75  A    between atoms: _170  and  _173
REMARK   76  A    between atoms: _173  and  _174
REMARK   77  A    between atoms: _180  and  _182
REMARK   78  A    between atoms: _182  and  _183
REMARK   79  A    between atoms: _182  and  _185
REMARK   80  A    between atoms: _185  and  _186
REMARK   81  A    between atoms: _189  and  _191
REMARK   82  A    between atoms: _191  and  _192
REMARK   83  A    between atoms: _191  and  _194
REMARK   84  A    between atoms: _197  and  _199
REMARK   85  A    between atoms: _199  and  _200
REMARK   86  A    between atoms: _199  and  _202
REMARK   87  A    between atoms: _202  and  _203
REMARK   88  A    between atoms: _206  and  _208
REMARK   89  A    between atoms: _208  and  _209
REMARK   90  A    between atoms: _208  and  _211
REMARK   91  A    between atoms: _211  and  _212
REMARK   92  A    between atoms: _216  and  _217
REMARK   93  A    between atoms: _222  and  _224
REMARK   94  A    between atoms: _224  and  _225
REMARK   95  A    between atoms: _224  and  _227
REMARK   96  A    between atoms: _230  and  _232
REMARK   97  A    between atoms: _232  and  _233
REMARK   98  A    between atoms: _232  and  _235
REMARK   99  A    between atoms: _235  and  _236
REMARK  100  A    between atoms: _241  and  _243
REMARK  101  A    between atoms: _243  and  _244
REMARK  102  A    between atoms: _243  and  _246
REMARK  103  A    between atoms: _246  and  _247
REMARK  104  A    between atoms: _250  and  _252
REMARK  105  A    between atoms: _252  and  _253
REMARK  106  A    between atoms: _252  and  _255
REMARK  107  A    between atoms: _255  and  _256
REMARK  108  A    between atoms: _259  and  _261
REMARK  109  A    between atoms: _261  and  _262
REMARK  110  A    between atoms: _264  and  _266
REMARK  111  A    between atoms: _266  and  _267
REMARK  112  A    between atoms: _266  and  _269
REMARK  113  A    between atoms: _269  and  _270
REMARK  114  A    between atoms: _270  and  _271
REMARK  115  A    between atoms: _271  and  _272
REMARK  116  A    between atoms: _281  and  _283
REMARK  117  A    between atoms: _283  and  _284
REMARK  118  A    between atoms: _283  and  _286
REMARK  119  A    between atoms: _286  and  _287
REMARK  120  A    between atoms: _292  and  _294
REMARK  121  A    between atoms: _294  and  _295
REMARK  122  A    between atoms: _294  and  _297
REMARK  123  A    between atoms: _297  and  _298
REMARK  124  A    between atoms: _298  and  _299
REMARK  125  A    between atoms: _299  and  _300
REMARK  126  A    between atoms: _302  and  _303
REMARK  127  A    between atoms: _309  and  _311
REMARK  128  A    between atoms: _311  and  _312
REMARK  129  A    between atoms: _311  and  _314
REMARK  130  A    between atoms: _314  and  _315
REMARK  131  A    between atoms: _318  and  _320
REMARK  132  A    between atoms: _320  and  _321
REMARK  133  A    between atoms: _320  and  _323
REMARK  134  A    between atoms: _323  and  _324
REMARK  135  A    between atoms: _327  and  _329
REMARK  136  A    between atoms: _329  and  _330
REMARK  137  A    between atoms: _329  and  _332
REMARK  138  A    between atoms: _332  and  _333
REMARK  139  A    between atoms: _336  and  _338
REMARK  140  A    between atoms: _338  and  _339
REMARK  141  A    between atoms: _338  and  _341
REMARK  142  A    between atoms: _341  and  _342
REMARK  143  A    between atoms: _345  and  _347
REMARK  144  A    between atoms: _347  and  _348
REMARK  145  A    between atoms: _350  and  _352
REMARK  146  A    between atoms: _352  and  _353
REMARK  147  A    between atoms: _356  and  _358
REMARK  148  A    between atoms: _358  and  _359
REMARK  149  A    between atoms: _358  and  _361
REMARK  150  A    between atoms: _361  and  _362
REMARK  151  A    between atoms: _365  and  _367
REMARK  152  A    between atoms: _367  and  _368
REMARK  153  A    between atoms: _367  and  _370
REMARK  154  A    between atoms: _370  and  _371
REMARK  155  A    between atoms: _374  and  _376
REMARK  156  A    between atoms: _376  and  _377
REMARK  157  A    between atoms: _376  and  _379
REMARK  158  A    between atoms: _379  and  _380
REMARK  159  A    between atoms: _383  and  _385
REMARK  160  A    between atoms: _385  and  _386
REMARK  161  A    between atoms: _385  and  _388
REMARK  162  A    between atoms: _391  and  _393
REMARK  163  A    between atoms: _393  and  _394
REMARK  164  A    between atoms: _393  and  _396
REMARK  165  A    between atoms: _396  and  _397
REMARK  166  A    between atoms: _397  and  _398
REMARK  167  A    between atoms: _398  and  _399
REMARK  168  A    between atoms: _399  and  _400
REMARK  169  A    between atoms: _404  and  _406
REMARK  170  A    between atoms: _406  and  _407
REMARK  171  A    between atoms: _406  and  _409
REMARK  172  A    between atoms: _409  and  _410
REMARK  173  A    between atoms: _410  and  _411
REMARK  174  A    between atoms: _413  and  _415
REMARK  175  A    between atoms: _415  and  _416
REMARK  176  A    between atoms: _415  and  _418
REMARK  177  A    between atoms: _418  and  _419
REMARK  178  A    between atoms: _422  and  _424
REMARK  179  A    between atoms: _424  and  _425
REMARK  180  A    between atoms: _427  and  _429
REMARK  181  A    between atoms: _429  and  _430
REMARK  182  A    between atoms: _432  and  _434
REMARK  183  A    between atoms: _434  and  _435
REMARK  184  A    between atoms: _434  and  _437
REMARK  185  A    between atoms: _440  and  _442
REMARK  186  A    between atoms: _442  and  _443
REMARK  187  A    between atoms: _445  and  _447
REMARK  188  A    between atoms: _447  and  _448
REMARK  189  A    between atoms: _450  and  _452
REMARK  190  A    between atoms: _452  and  _453
REMARK  191  A    between atoms: _452  and  _455
REMARK  192  A    between atoms: _455  and  _456
REMARK  193  A    between atoms: _462  and  _464
REMARK  194  A    between atoms: _464  and  _465
REMARK  195  A    between atoms: _464  and  _467
REMARK  196  A    between atoms: _467  and  _468
REMARK  197  A    between atoms: _471  and  _473
REMARK  198  A    between atoms: _473  and  _474
REMARK  199  A    between atoms: _473  and  _476
REMARK  200  A    between atoms: _479  and  _481
REMARK  201  A    between atoms: _481  and  _482
REMARK  202  A    between atoms: _481  and  _484
REMARK  203  A    between atoms: _484  and  _485
REMARK  204  A    between atoms: _489  and  _490
REMARK  205  A    between atoms: _495  and  _497
REMARK  206  A    between atoms: _497  and  _498
REMARK  207  A    between atoms: _497  and  _500
REMARK  208  A    between atoms: _500  and  _501
REMARK  209  A    between atoms: _505  and  _506
REMARK  210  A    between atoms: _511  and  _513
REMARK  211  A    between atoms: _513  and  _514
REMARK  212  A    between atoms: _513  and  _516
REMARK  213  A    between atoms: _519  and  _521
REMARK  214  A    between atoms: _521  and  _522
REMARK  215  A    between atoms: _521  and  _524
REMARK  216  A    between atoms: _524  and  _525
REMARK  217  A    between atoms: _530  and  _532
REMARK  218  A    between atoms: _532  and  _533
REMARK  219  A    between atoms: _532  and  _535
REMARK  220  A    between atoms: _535  and  _536
REMARK  221  A    between atoms: _539  and  _541
REMARK  222  A    between atoms: _541  and  _542
REMARK  223  A    between atoms: _541  and  _544
REMARK  224  A    between atoms: _544  and  _545
REMARK  225  A    between atoms: _548  and  _550
REMARK  226  A    between atoms: _550  and  _551
REMARK  227  A    between atoms: _553  and  _555
REMARK  228  A    between atoms: _555  and  _556
REMARK  229  A    between atoms: _555  and  _558
REMARK  230  A    between atoms: _558  and  _559
REMARK  231  A    between atoms: _559  and  _560
REMARK  232  A    between atoms: _560  and  _561
REMARK  233  A    between atoms: _570  and  _572
REMARK  234  A    between atoms: _572  and  _573
REMARK  235  A    between atoms: _572  and  _575
REMARK  236  A    between atoms: _575  and  _576
REMARK                            x       y       z     vdW  Elec       q    Type
REMARK                         _______ _______ _______ _____ _____    ______ ____
ROOT
ATOM      1  C   ILE A   5      13.585  29.718  11.371  0.00  0.00    +0.241 C 
ATOM      2  N   ILE A   6      12.769  30.501  12.081  0.00  0.00    -0.297 N 
ATOM      3  H   ILE A   6      11.887  30.100  12.460  0.00  0.00    +0.150 HD
ATOM      4  O   ILE A   5      14.583  30.148  10.751  0.00  0.00    -0.273 OA
ENDROOT
BRANCH   2   5
ATOM      5  CA  ILE A   6      13.081  31.910  12.342  0.00  0.00    +0.149 C 
BRANCH   5   6
ATOM      6  C   ILE A   6      13.716  31.971  13.719  0.00  0.00    +0.241 C 
ATOM      7  O   ILE A   6      13.065  31.603  14.709  0.00  0.00    -0.273 OA
ATOM      8  N   GLY A   7      14.972  32.348  13.786  0.00  0.00    -0.295 N 
ATOM      9  H   GLY A   7      15.465  32.615  12.910  0.00  0.00    +0.150 HD
BRANCH   8  10
ATOM     10  CA  GLY A   7      15.690  32.404  15.034  0.00  0.00    +0.176 C 
BRANCH  10  11
ATOM     11  C   GLY A   7      15.804  33.783  15.621  0.00  0.00    +0.243 C 
ATOM     12  N   ARG A   8      16.540  33.873  16.709  0.00  0.00    -0.297 N 
ATOM     13  H   ARG A   8      17.109  33.059  17.016  0.00  0.00    +0.150 HD
ATOM     14  O   GLY A   7      15.239  34.767  15.090  0.00  0.00    -0.273 OA
BRANCH  12  15
ATOM     15  CA  ARG A   8      16.562  35.112  17.489  0.00  0.00    +0.149 C 
BRANCH  15  16
ATOM     16  C   ARG A   8      17.031  36.289  16.715  0.00  0.00    +0.241 C 
ATOM     17  O   ARG A   8      16.621  37.428  16.998  0.00  0.00    -0.273 OA
ATOM     18  N   ASN A   9      17.950  36.087  15.772  0.00  0.00    -0.298 N 
ATOM     19  H   ASN A   9      18.284  35.125  15.559  0.00  0.00    +0.150 HD
BRANCH  18  20
ATOM     20  CA  ASN A   9      18.478  37.225  15.047  0.00  0.00    +0.146 C 
BRANCH  20  21
ATOM     21  C   ASN A   9      17.408  38.024  14.321  0.00  0.00    +0.227 C 
ATOM     22  O   ASN A   9      17.620  39.234  14.101  0.00  0.00    -0.286 OA
ENDBRANCH  20  21
BRANCH  20  23
ATOM     23  CB  ASN A   9      19.577  36.800  14.059  0.00  0.00    +0.112 C 
BRANCH  23  24
ATOM     24  CG  ASN A   9      19.028  36.079  12.842  0.00  0.00    +0.222 C 
ATOM     25  OD1 ASN A   9      18.295  35.106  12.975  0.00  0.00    -0.275 OA
ATOM     26  ND2 ASN A   9      19.383  36.571  11.687  0.00  0.00    -0.329 N 
ATOM     27 HD21 ASN A   9      20.009  37.401  11.645  0.00  0.00    +0.145 HD
ATOM     28 HD22 ASN A   9      19.040  36.134  10.808  0.00  0.00    +0.145 HD
ENDBRANCH  23  24
ENDBRANCH  20  23
ENDBRANCH  18  20
ENDBRANCH  15  16
BRANCH  15  29
ATOM     29  CB  ARG A   8      17.368  34.891  18.754  0.00  0.00    +0.033 C 
BRANCH  29  30
ATOM     30  CG  ARG A   8      16.756  33.905  19.717  0.00  0.00    +0.045 C 
BRANCH  30  31
ATOM     31  CD  ARG A   8      17.465  33.858  21.066  0.00  0.00    +0.174 C 
BRANCH  31  32
ATOM     32  NE  ARG A   8      18.852  33.422  20.941  0.00  0.00    -0.265 N 
ATOM     33  CZ  ARG A   8      19.930  34.197  20.899  0.00  0.00    +0.342 C 
ATOM     34  NH2 ARG A   8      19.893  35.519  21.029  0.00  0.00    -0.292 N 
ATOM     35 HH21 ARG A   8      18.983  36.002  21.173  0.00  0.00    +0.255 HD
ATOM     36 HH22 ARG A   8      20.774  36.071  20.987  0.00  0.00    +0.255 HD
ATOM     37  NH1 ARG A   8      21.120  33.629  20.744  0.00  0.00    -0.292 N 
ATOM     38 HH11 ARG A   8      21.977  34.218  20.709  0.00  0.00    +0.255 HD
ATOM     39 HH12 ARG A   8      21.196  32.595  20.658  0.00  0.00    +0.255 HD
ATOM     40  HE  ARG A   8      19.013  32.397  20.878  0.00  0.00    +0.259 HD
ENDBRANCH  31  32
ENDBRANCH  30  31
ENDBRANCH  29  30
ENDBRANCH  15  29
ENDBRANCH  12  15
ENDBRANCH  10  11
ENDBRANCH   8  10
ENDBRANCH   5   6
BRANCH   5  41
ATOM     41  CB  ILE A   6      11.841  32.814  12.280  0.00  0.00    +0.027 C 
ATOM     42  CG2 ILE A   6      12.189  34.261  12.523  0.00  0.00    +0.002 C 
BRANCH  41  43
ATOM     43  CG1 ILE A   6      11.073  32.651  10.989  0.00  0.00    +0.002 C 
ATOM     44  CD1 ILE A   6      11.897  32.940   9.737  0.00  0.00    +0.000 C 
ENDBRANCH  41  43
ENDBRANCH   5  41
ENDBRANCH   2   5
BRANCH   1  45
ATOM     45  CA  ILE A   5      13.293  28.246  11.357  0.00  0.00    +0.149 C 
BRANCH  45  48
ATOM     46  C   ASN A   4      12.146  27.104   9.534  0.00  0.00    +0.241 C 
ATOM     47  O   ASN A   4      11.073  26.980  10.125  0.00  0.00    -0.273 OA
ATOM     48  N   ILE A   5      13.204  27.752   9.990  0.00  0.00    -0.297 N 
ATOM     49  H   ILE A   5      14.005  27.916   9.347  0.00  0.00    +0.150 HD
BRANCH  46  50
ATOM     50  CA  ASN A   4      12.272  26.494   8.149  0.00  0.00    +0.158 C 
BRANCH  50  53
ATOM     51  C   VAL A   3      12.560  24.193   8.813  0.00  0.00    +0.241 C 
ATOM     52  O   VAL A   3      13.717  24.431   9.214  0.00  0.00    -0.273 OA
ATOM     53  N   ASN A   4      11.818  25.115   8.233  0.00  0.00    -0.297 N 
ATOM     54  H   ASN A   4      10.896  24.853   7.830  0.00  0.00    +0.150 HD
BRANCH  51  55
ATOM     55  CA  VAL A   3      11.991  22.810   9.071  0.00  0.00    +0.149 C 
BRANCH  55  57
ATOM     56  C   PRO A   2      12.836  20.669   8.171  0.00  0.00    +0.245 C 
ATOM     57  N   VAL A   3      13.008  21.832   8.745  0.00  0.00    -0.297 N 
ATOM     58  H   VAL A   3      13.986  22.082   8.996  0.00  0.00    +0.150 HD
ATOM     59  O   PRO A   2      11.742  20.295   7.781  0.00  0.00    -0.273 OA
BRANCH  56  65
ATOM     60  C   THR A   1      15.767  21.216   7.196  0.00  0.00    +0.244 C 
ATOM     61  N   PRO A   2      15.327  20.386   8.146  0.00  0.00    -0.264 N 
ATOM     62  CD  PRO A   2      16.115  19.915   9.288  0.00  0.00    +0.120 C 
ATOM     63  CG  PRO A   2      15.212  18.926   9.982  0.00  0.00    -0.007 C 
ATOM     64  CB  PRO A   2      14.038  18.690   9.143  0.00  0.00    -0.000 C 
ATOM     65  CA  PRO A   2      14.027  19.727   8.018  0.00  0.00    +0.175 C 
ATOM     66  O   THR A   1      15.090  21.447   6.200  0.00  0.00    -0.273 OA
BRANCH  60  67
ATOM     67  CA  THR A   1      17.082  21.911   7.379  0.00  0.00    +0.172 C 
BRANCH  67  68
ATOM     68  N   THR A   1      17.801  21.964   6.137  0.00  0.00    -0.236 NA
ATOM     69  H   THR A   1      17.816  22.848   5.589  0.00  0.00    +0.142 HD
ENDBRANCH  67  68
BRANCH  67  70
ATOM     70  CB  THR A   1      16.870  23.329   7.933  0.00  0.00    +0.135 C 
ATOM     71  CG2 THR A   1      16.129  24.254   7.000  0.00  0.00    +0.034 C 
BRANCH  70  72
ATOM     72  OG1 THR A   1      16.132  23.203   9.153  0.00  0.00    -0.383 OA
ATOM     73  HG1 THR A   1      15.262  22.768   8.968  0.00  0.00    +0.210 HD
ENDBRANCH  70  72
ENDBRANCH  67  70
ENDBRANCH  60  67
ENDBRANCH  56  65
ENDBRANCH  55  57
BRANCH  55  74
ATOM     74  CB  VAL A   3      11.595  22.707  10.597  0.00  0.00    +0.027 C 
ATOM     75  CG2 VAL A   3      10.589  23.738  10.967  0.00  0.00    +0.002 C 
ATOM     76  CG1 VAL A   3      11.071  21.297  10.868  0.00  0.00    +0.002 C 
ENDBRANCH  55  74
ENDBRANCH  51  55
ENDBRANCH  50  53
BRANCH  50  77
ATOM     77  CB  ASN A   4      11.428  27.256   7.133  0.00  0.00    +0.114 C 
BRANCH  77  78
ATOM     78  CG  ASN A   4      11.528  26.740   5.727  0.00  0.00    +0.222 C 
ATOM     79  OD1 ASN A   4      12.595  26.358   5.271  0.00  0.00    -0.275 OA
ATOM     80  ND2 ASN A   4      10.377  26.718   5.038  0.00  0.00    -0.329 N 
ATOM     81 HD21 ASN A   4       9.499  27.057   5.481  0.00  0.00    +0.145 HD
ATOM     82 HD22 ASN A   4      10.363  26.362   4.061  0.00  0.00    +0.145 HD
ENDBRANCH  77  78
ENDBRANCH  50  77
ENDBRANCH  46  50
ENDBRANCH  45  48
BRANCH  45  83
ATOM     83  CB  ILE A   5      14.440  27.498  12.091  0.00  0.00    +0.027 C 
ATOM     84  CG2 ILE A   5      14.842  28.196  13.377  0.00  0.00    +0.002 C 
BRANCH  83  85
ATOM     85  CG1 ILE A   5      14.112  26.020  12.261  0.00  0.00    +0.002 C 
ATOM     86  CD1 ILE A   5      15.332  25.149  12.479  0.00  0.00    +0.000 C 
ENDBRANCH  83  85
ENDBRANCH  45  83
ENDBRANCH   1  45
TORSDOF 32
REMARK  Name = ../refined-set-2016/2avq/2avq_pocket.pdb
REMARK  236 active torsions:
REMARK  status: ('A' for Active; 'I' for Inactive)
REMARK    1  A    between atoms: _1  and  _3
REMARK    2  A    between atoms: _3  and  _4
REMARK    3  A    between atoms: _3  and  _6
REMARK    4  A    between atoms: _6  and  _7
REMARK    5  A    between atoms: _7  and  _8
REMARK    6  A    between atoms: _8  and  _9
REMARK    7  A    between atoms: _18  and  _20
REMARK    8  A    between atoms: _20  and  _21
REMARK    9  A    between atoms: _20  and  _23
REMARK   10  A    between atoms: _23  and  _24
REMARK   11  A    between atoms: _27  and  _29
REMARK   12  A    between atoms: _29  and  _30
REMARK   13  A    between atoms: _29  and  _32
REMARK   14  A    between atoms: _32  and  _33
REMARK   15  A    between atoms: _36  and  _38
REMARK   16  A    between atoms: _38  and  _39
REMARK   17  A    between atoms: _38  and  _41
REMARK   18  A    between atoms: _41  and  _42
REMARK   19  A    between atoms: _45  and  _47
REMARK   20  A    between atoms: _47  and  _48
REMARK   21  A    between atoms: _47  and  _50
REMARK   22  A    between atoms: _50  and  _51
REMARK   23  A    between atoms: _54  and  _56
REMARK   24  A    between atoms: _56  and  _57
REMARK   25  A    between atoms: _56  and  _59
REMARK   26  A    between atoms: _59  and  _60
REMARK   27  A    between atoms: _63  and  _65
REMARK   28  A    between atoms: _65  and  _66
REMARK   29  A    between atoms: _68  and  _70
REMARK   30  A    between atoms: _70  and  _71
REMARK   31  A    between atoms: _74  and  _76
REMARK   32  A    between atoms: _76  and  _77
REMARK   33  A    between atoms: _76  and  _79
REMARK   34  A    between atoms: _79  and  _80
REMARK   35  A    between atoms: _83  and  _85
REMARK   36  A    between atoms: _85  and  _86
REMARK   37  A    between atoms: _85  and  _88
REMARK   38  A    between atoms: _88  and  _89
REMARK   39  A    between atoms: _92  and  _94
REMARK   40  A    between atoms: _94  and  _95
REMARK   41  A    between atoms: _94  and  _97
REMARK   42  A    between atoms: _97  and  _98
REMARK   43  A    between atoms: _101  and  _103
REMARK   44  A    between atoms: _103  and  _104
REMARK   45  A    between atoms: _103  and  _106
REMARK   46  A    between atoms: _109  and  _111
REMARK   47  A    between atoms: _111  and  _112
REMARK   48  A    between atoms: _111  and  _114
REMARK   49  A    between atoms: _114  and  _115
REMARK   50  A    between atoms: _115  and  _116
REMARK   51  A    between atoms: _116  and  _117
REMARK   52  A    between atoms: _117  and  _118
REMARK   53  A    between atoms: _122  and  _124
REMARK   54  A    between atoms: _124  and  _125
REMARK   55  A    between atoms: _124  and  _127
REMARK   56  A    between atoms: _127  and  _128
REMARK   57  A    between atoms: _128  and  _129
REMARK   58  A    between atoms: _131  and  _133
REMARK   59  A    between atoms: _133  and  _134
REMARK   60  A    between atoms: _133  and  _136
REMARK   61  A    between atoms: _136  and  _137
REMARK   62  A    between atoms: _140  and  _142
REMARK   63  A    between atoms: _142  and  _143
REMARK   64  A    between atoms: _145  and  _147
REMARK   65  A    between atoms: _147  and  _148
REMARK   66  A    between atoms: _150  and  _152
REMARK   67  A    between atoms: _152  and  _153
REMARK   68  A    between atoms: _152  and  _155
REMARK   69  A    between atoms: _158  and  _160
REMARK   70  A    between atoms: _160  and  _161
REMARK   71  A    between atoms: _163  and  _165
REMARK   72  A    between atoms: _165  and  _166
REMARK   73  A    between atoms: _168  and  _170
REMARK   74  A    between atoms: _170  and  _171
REMARK   75  A    between atoms: _170  and  _173
REMARK   76  A    between atoms: _173  and  _174
REMARK   77  A    between atoms: _180  and  _182
REMARK   78  A    between atoms: _182  and  _183
REMARK   79  A    between atoms: _182  and  _185
REMARK   80  A    between atoms: _185  and  _186
REMARK   81  A    between atoms: _189  and  _191
REMARK   82  A    between atoms: _191  and  _192
REMARK   83  A    between atoms: _191  and  _194
REMARK   84  A    between atoms: _197  and  _199
REMARK   85  A    between atoms: _199  and  _200
REMARK   86  A    between atoms: _199  and  _202
REMARK   87  A    between atoms: _202  and  _203
REMARK   88  A    between atoms: _206  and  _208
REMARK   89  A    between atoms: _208  and  _209
REMARK   90  A    between atoms: _208  and  _211
REMARK   91  A    between atoms: _211  and  _212
REMARK   92  A    between atoms: _216  and  _217
REMARK   93  A    between atoms: _222  and  _224
REMARK   94  A    between atoms: _224  and  _225
REMARK   95  A    between atoms: _224  and  _227
REMARK   96  A    between atoms: _230  and  _232
REMARK   97  A    between atoms: _232  and  _233
REMARK   98  A    between atoms: _232  and  _235
REMARK   99  A    between atoms: _235  and  _236
REMARK  100  A    between atoms: _241  and  _243
REMARK  101  A    between atoms: _243  and  _244
REMARK  102  A    between atoms: _243  and  _246
REMARK  103  A    between atoms: _246  and  _247
REMARK  104  A    between atoms: _250  and  _252
REMARK  105  A    between atoms: _252  and  _253
REMARK  106  A    between atoms: _252  and  _255
REMARK  107  A    between atoms: _255  and  _256
REMARK  108  A    between atoms: _259  and  _261
REMARK  109  A    between atoms: _261  and  _262
REMARK  110  A    between atoms: _264  and  _266
REMARK  111  A    between atoms: _266  and  _267
REMARK  112  A    between atoms: _266  and  _269
REMARK  113  A    between atoms: _269  and  _270
REMARK  114  A    between atoms: _270  and  _271
REMARK  115  A    between atoms: _271  and  _272
REMARK  116  A    between atoms: _281  and  _283
REMARK  117  A    between atoms: _283  and  _284
REMARK  118  A    between atoms: _283  and  _286
REMARK  119  A    between atoms: _286  and  _287
REMARK  120  A    between atoms: _292  and  _294
REMARK  121  A    between atoms: _294  and  _295
REMARK  122  A    between atoms: _294  and  _297
REMARK  123  A    between atoms: _297  and  _298
REMARK  124  A    between atoms: _298  and  _299
REMARK  125  A    between atoms: _299  and  _300
REMARK  126  A    between atoms: _302  and  _303
REMARK  127  A    between atoms: _309  and  _311
REMARK  128  A    between atoms: _311  and  _312
REMARK  129  A    between atoms: _311  and  _314
REMARK  130  A    between atoms: _314  and  _315
REMARK  131  A    between atoms: _318  and  _320
REMARK  132  A    between atoms: _320  and  _321
REMARK  133  A    between atoms: _320  and  _323
REMARK  134  A    between atoms: _323  and  _324
REMARK  135  A    between atoms: _327  and  _329
REMARK  136  A    between atoms: _329  and  _330
REMARK  137  A    between atoms: _329  and  _332
REMARK  138  A    between atoms: _332  and  _333
REMARK  139  A    between atoms: _336  and  _338
REMARK  140  A    between atoms: _338  and  _339
REMARK  141  A    between atoms: _338  and  _341
REMARK  142  A    between atoms: _341  and  _342
REMARK  143  A    between atoms: _345  and  _347
REMARK  144  A    between atoms: _347  and  _348
REMARK  145  A    between atoms: _350  and  _352
REMARK  146  A    between atoms: _352  and  _353
REMARK  147  A    between atoms: _356  and  _358
REMARK  148  A    between atoms: _358  and  _359
REMARK  149  A    between atoms: _358  and  _361
REMARK  150  A    between atoms: _361  and  _362
REMARK  151  A    between atoms: _365  and  _367
REMARK  152  A    between atoms: _367  and  _368
REMARK  153  A    between atoms: _367  and  _370
REMARK  154  A    between atoms: _370  and  _371
REMARK  155  A    between atoms: _374  and  _376
REMARK  156  A    between atoms: _376  and  _377
REMARK  157  A    between atoms: _376  and  _379
REMARK  158  A    between atoms: _379  and  _380
REMARK  159  A    between atoms: _383  and  _385
REMARK  160  A    between atoms: _385  and  _386
REMARK  161  A    between atoms: _385  and  _388
REMARK  162  A    between atoms: _391  and  _393
REMARK  163  A    between atoms: _393  and  _394
REMARK  164  A    between atoms: _393  and  _396
REMARK  165  A    between atoms: _396  and  _397
REMARK  166  A    between atoms: _397  and  _398
REMARK  167  A    between atoms: _398  and  _399
REMARK  168  A    between atoms: _399  and  _400
REMARK  169  A    between atoms: _404  and  _406
REMARK  170  A    between atoms: _406  and  _407
REMARK  171  A    between atoms: _406  and  _409
REMARK  172  A    between atoms: _409  and  _410
REMARK  173  A    between atoms: _410  and  _411
REMARK  174  A    between atoms: _413  and  _415
REMARK  175  A    between atoms: _415  and  _416
REMARK  176  A    between atoms: _415  and  _418
REMARK  177  A    between atoms: _418  and  _419
REMARK  178  A    between atoms: _422  and  _424
REMARK  179  A    between atoms: _424  and  _425
REMARK  180  A    between atoms: _427  and  _429
REMARK  181  A    between atoms: _429  and  _430
REMARK  182  A    between atoms: _432  and  _434
REMARK  183  A    between atoms: _434  and  _435
REMARK  184  A    between atoms: _434  and  _437
REMARK  185  A    between atoms: _440  and  _442
REMARK  186  A    between atoms: _442  and  _443
REMARK  187  A    between atoms: _445  and  _447
REMARK  188  A    between atoms: _447  and  _448
REMARK  189  A    between atoms: _450  and  _452
REMARK  190  A    between atoms: _452  and  _453
REMARK  191  A    between atoms: _452  and  _455
REMARK  192  A    between atoms: _455  and  _456
REMARK  193  A    between atoms: _462  and  _464
REMARK  194  A    between atoms: _464  and  _465
REMARK  195  A    between atoms: _464  and  _467
REMARK  196  A    between atoms: _467  and  _468
REMARK  197  A    between atoms: _471  and  _473
REMARK  198  A    between atoms: _473  and  _474
REMARK  199  A    between atoms: _473  and  _476
REMARK  200  A    between atoms: _479  and  _481
REMARK  201  A    between atoms: _481  and  _482
REMARK  202  A    between atoms: _481  and  _484
REMARK  203  A    between atoms: _484  and  _485
REMARK  204  A    between atoms: _489  and  _490
REMARK  205  A    between atoms: _495  and  _497
REMARK  206  A    between atoms: _497  and  _498
REMARK  207  A    between atoms: _497  and  _500
REMARK  208  A    between atoms: _500  and  _501
REMARK  209  A    between atoms: _505  and  _506
REMARK  210  A    between atoms: _511  and  _513
REMARK  211  A    between atoms: _513  and  _514
REMARK  212  A    between atoms: _513  and  _516
REMARK  213  A    between atoms: _519  and  _521
REMARK  214  A    between atoms: _521  and  _522
REMARK  215  A    between atoms: _521  and  _524
REMARK  216  A    between atoms: _524  and  _525
REMARK  217  A    between atoms: _530  and  _532
REMARK  218  A    between atoms: _532  and  _533
REMARK  219  A    between atoms: _532  and  _535
REMARK  220  A    between atoms: _535  and  _536
REMARK  221  A    between atoms: _539  and  _541
REMARK  222  A    between atoms: _541  and  _542
REMARK  223  A    between atoms: _541  and  _544
REMARK  224  A    between atoms: _544  and  _545
REMARK  225  A    between atoms: _548  and  _550
REMARK  226  A    between atoms: _550  and  _551
REMARK  227  A    between atoms: _553  and  _555
REMARK  228  A    between atoms: _555  and  _556
REMARK  229  A    between atoms: _555  and  _558
REMARK  230  A    between atoms: _558  and  _559
REMARK  231  A    between atoms: _559  and  _560
REMARK  232  A    between atoms: _560  and  _561
REMARK  233  A    between atoms: _570  and  _572
REMARK  234  A    between atoms: _572  and  _573
REMARK  235  A    between atoms: _572  and  _575
REMARK  236  A    between atoms: _575  and  _576
REMARK                            x       y       z     vdW  Elec       q    Type
REMARK                         _______ _______ _______ _____ _____    ______ ____
ROOT
ATOM      1  N   UNK     1      23.146  30.182  24.635  0.00  0.00    -0.265 N 
ATOM      2  C   UNK     1      23.662  29.062  25.125  0.00  0.00    +0.342 C 
ATOM      3  N   UNK     1      24.536  29.148  26.108  0.00  0.00    -0.292 N 
ATOM      4  H   UNK     1      24.954  28.284  26.509  0.00  0.00    +0.255 HD
ATOM      5  H   UNK     1      24.807  30.079  26.483  0.00  0.00    +0.255 HD
ATOM      6  H   UNK     1      23.490  31.056  25.081  0.00  0.00    +0.259 HD
ENDROOT
BRANCH   2   7
ATOM      7  N   UNK     1      23.354  27.854  24.698  0.00  0.00    -0.238 NA
ATOM      8  O   UNK     1      21.920  27.085  25.436  0.00  0.00    -0.053 OA
ATOM      9  H   UNK     1      23.800  27.020  25.131  0.00  0.00    +0.254 HD
ATOM     10  H   UNK     1      22.665  27.735  23.928  0.00  0.00    +0.254 HD
ENDBRANCH   2   7
BRANCH   1  11
ATOM     11  C   UNK     1      22.183  30.374  23.581  0.00  0.00    +0.174 C 
BRANCH  11  12
ATOM     12  C   UNK     1      21.527  31.746  23.567  0.00  0.00    +0.045 C 
BRANCH  12  13
ATOM     13  C   UNK     1      20.589  31.959  24.737  0.00  0.00    +0.029 C 
BRANCH  13  14
ATOM     14  C   UNK     1      19.625  33.149  24.608  0.00  0.00    +0.133 C 
BRANCH  14  15
ATOM     15  N   UNK     1      20.368  34.389  24.481  0.00  0.00    -0.239 NA
ATOM     16  H   UNK     1      21.407  34.376  24.517  0.00  0.00    +0.142 HD
ENDBRANCH  14  15
BRANCH  14  17
ATOM     17  C   UNK     1      18.720  33.212  25.839  0.00  0.00    +0.224 C 
ATOM     18  O   UNK     1      19.157  33.694  26.897  0.00  0.00    -0.287 OA
ENDBRANCH  14  17
ENDBRANCH  13  14
ENDBRANCH  12  13
ENDBRANCH  11  12
ENDBRANCH   1  11
TORSDOF 7
REMARK  Name = ../refined-set-2016/2avq/2avq_pocket.pdb
REMARK  236 active torsions:
REMARK  status: ('A' for Active; 'I' for Inactive)
REMARK    1  A    between atoms: _1  and  _3
REMARK    2  A    between atoms: _3  and  _4
REMARK    3  A    between atoms: _3  and  _6
REMARK    4  A    between atoms: _6  and  _7
REMARK    5  A    between atoms: _7  and  _8
REMARK    6  A    between atoms: _8  and  _9
REMARK    7  A    between atoms: _18  and  _20
REMARK    8  A    between atoms: _20  and  _21
REMARK    9  A    between atoms: _20  and  _23
REMARK   10  A    between atoms: _23  and  _24
REMARK   11  A    between atoms: _27  and  _29
REMARK   12  A    between atoms: _29  and  _30
REMARK   13  A    between atoms: _29  and  _32
REMARK   14  A    between atoms: _32  and  _33
REMARK   15  A    between atoms: _36  and  _38
REMARK   16  A    between atoms: _38  and  _39
REMARK   17  A    between atoms: _38  and  _41
REMARK   18  A    between atoms: _41  and  _42
REMARK   19  A    between atoms: _45  and  _47
REMARK   20  A    between atoms: _47  and  _48
REMARK   21  A    between atoms: _47  and  _50
REMARK   22  A    between atoms: _50  and  _51
REMARK   23  A    between atoms: _54  and  _56
REMARK   24  A    between atoms: _56  and  _57
REMARK   25  A    between atoms: _56  and  _59
REMARK   26  A    between atoms: _59  and  _60
REMARK   27  A    between atoms: _63  and  _65
REMARK   28  A    between atoms: _65  and  _66
REMARK   29  A    between atoms: _68  and  _70
REMARK   30  A    between atoms: _70  and  _71
REMARK   31  A    between atoms: _74  and  _76
REMARK   32  A    between atoms: _76  and  _77
REMARK   33  A    between atoms: _76  and  _79
REMARK   34  A    between atoms: _79  and  _80
REMARK   35  A    between atoms: _83  and  _85
REMARK   36  A    between atoms: _85  and  _86
REMARK   37  A    between atoms: _85  and  _88
REMARK   38  A    between atoms: _88  and  _89
REMARK   39  A    between atoms: _92  and  _94
REMARK   40  A    between atoms: _94  and  _95
REMARK   41  A    between atoms: _94  and  _97
REMARK   42  A    between atoms: _97  and  _98
REMARK   43  A    between atoms: _101  and  _103
REMARK   44  A    between atoms: _103  and  _104
REMARK   45  A    between atoms: _103  and  _106
REMARK   46  A    between atoms: _109  and  _111
REMARK   47  A    between atoms: _111  and  _112
REMARK   48  A    between atoms: _111  and  _114
REMARK   49  A    between atoms: _114  and  _115
REMARK   50  A    between atoms: _115  and  _116
REMARK   51  A    between atoms: _116  and  _117
REMARK   52  A    between atoms: _117  and  _118
REMARK   53  A    between atoms: _122  and  _124
REMARK   54  A    between atoms: _124  and  _125
REMARK   55  A    between atoms: _124  and  _127
REMARK   56  A    between atoms: _127  and  _128
REMARK   57  A    between atoms: _128  and  _129
REMARK   58  A    between atoms: _131  and  _133
REMARK   59  A    between atoms: _133  and  _134
REMARK   60  A    between atoms: _133  and  _136
REMARK   61  A    between atoms: _136  and  _137
REMARK   62  A    between atoms: _140  and  _142
REMARK   63  A    between atoms: _142  and  _143
REMARK   64  A    between atoms: _145  and  _147
REMARK   65  A    between atoms: _147  and  _148
REMARK   66  A    between atoms: _150  and  _152
REMARK   67  A    between atoms: _152  and  _153
REMARK   68  A    between atoms: _152  and  _155
REMARK   69  A    between atoms: _158  and  _160
REMARK   70  A    between atoms: _160  and  _161
REMARK   71  A    between atoms: _163  and  _165
REMARK   72  A    between atoms: _165  and  _166
REMARK   73  A    between atoms: _168  and  _170
REMARK   74  A    between atoms: _170  and  _171
REMARK   75  A    between atoms: _170  and  _173
REMARK   76  A    between atoms: _173  and  _174
REMARK   77  A    between atoms: _180  and  _182
REMARK   78  A    between atoms: _182  and  _183
REMARK   79  A    between atoms: _182  and  _185
REMARK   80  A    between atoms: _185  and  _186
REMARK   81  A    between atoms: _189  and  _191
REMARK   82  A    between atoms: _191  and  _192
REMARK   83  A    between atoms: _191  and  _194
REMARK   84  A    between atoms: _197  and  _199
REMARK   85  A    between atoms: _199  and  _200
REMARK   86  A    between atoms: _199  and  _202
REMARK   87  A    between atoms: _202  and  _203
REMARK   88  A    between atoms: _206  and  _208
REMARK   89  A    between atoms: _208  and  _209
REMARK   90  A    between atoms: _208  and  _211
REMARK   91  A    between atoms: _211  and  _212
REMARK   92  A    between atoms: _216  and  _217
REMARK   93  A    between atoms: _222  and  _224
REMARK   94  A    between atoms: _224  and  _225
REMARK   95  A    between atoms: _224  and  _227
REMARK   96  A    between atoms: _230  and  _232
REMARK   97  A    between atoms: _232  and  _233
REMARK   98  A    between atoms: _232  and  _235
REMARK   99  A    between atoms: _235  and  _236
REMARK  100  A    between atoms: _241  and  _243
REMARK  101  A    between atoms: _243  and  _244
REMARK  102  A    between atoms: _243  and  _246
REMARK  103  A    between atoms: _246  and  _247
REMARK  104  A    between atoms: _250  and  _252
REMARK  105  A    between atoms: _252  and  _253
REMARK  106  A    between atoms: _252  and  _255
REMARK  107  A    between atoms: _255  and  _256
REMARK  108  A    between atoms: _259  and  _261
REMARK  109  A    between atoms: _261  and  _262
REMARK  110  A    between atoms: _264  and  _266
REMARK  111  A    between atoms: _266  and  _267
REMARK  112  A    between atoms: _266  and  _269
REMARK  113  A    between atoms: _269  and  _270
REMARK  114  A    between atoms: _270  and  _271
REMARK  115  A    between atoms: _271  and  _272
REMARK  116  A    between atoms: _281  and  _283
REMARK  117  A    between atoms: _283  and  _284
REMARK  118  A    between atoms: _283  and  _286
REMARK  119  A    between atoms: _286  and  _287
REMARK  120  A    between atoms: _292  and  _294
REMARK  121  A    between atoms: _294  and  _295
REMARK  122  A    between atoms: _294  and  _297
REMARK  123  A    between atoms: _297  and  _298
REMARK  124  A    between atoms: _298  and  _299
REMARK  125  A    between atoms: _299  and  _300
REMARK  126  A    between atoms: _302  and  _303
REMARK  127  A    between atoms: _309  and  _311
REMARK  128  A    between atoms: _311  and  _312
REMARK  129  A    between atoms: _311  and  _314
REMARK  130  A    between atoms: _314  and  _315
REMARK  131  A    between atoms: _318  and  _320
REMARK  132  A    between atoms: _320  and  _321
REMARK  133  A    between atoms: _320  and  _323
REMARK  134  A    between atoms: _323  and  _324
REMARK  135  A    between atoms: _327  and  _329
REMARK  136  A    between atoms: _329  and  _330
REMARK  137  A    between atoms: _329  and  _332
REMARK  138  A    between atoms: _332  and  _333
REMARK  139  A    between atoms: _336  and  _338
REMARK  140  A    between atoms: _338  and  _339
REMARK  141  A    between atoms: _338  and  _341
REMARK  142  A    between atoms: _341  and  _342
REMARK  143  A    between atoms: _345  and  _347
REMARK  144  A    between atoms: _347  and  _348
REMARK  145  A    between atoms: _350  and  _352
REMARK  146  A    between atoms: _352  and  _353
REMARK  147  A    between atoms: _356  and  _358
REMARK  148  A    between atoms: _358  and  _359
REMARK  149  A    between atoms: _358  and  _361
REMARK  150  A    between atoms: _361  and  _362
REMARK  151  A    between atoms: _365  and  _367
REMARK  152  A    between atoms: _367  and  _368
REMARK  153  A    between atoms: _367  and  _370
REMARK  154  A    between atoms: _370  and  _371
REMARK  155  A    between atoms: _374  and  _376
REMARK  156  A    between atoms: _376  and  _377
REMARK  157  A    between atoms: _376  and  _379
REMARK  158  A    between atoms: _379  and  _380
REMARK  159  A    between atoms: _383  and  _385
REMARK  160  A    between atoms: _385  and  _386
REMARK  161  A    between atoms: _385  and  _388
REMARK  162  A    between atoms: _391  and  _393
REMARK  163  A    between atoms: _393  and  _394
REMARK  164  A    between atoms: _393  and  _396
REMARK  165  A    between atoms: _396  and  _397
REMARK  166  A    between atoms: _397  and  _398
REMARK  167  A    between atoms: _398  and  _399
REMARK  168  A    between atoms: _399  and  _400
REMARK  169  A    between atoms: _404  and  _406
REMARK  170  A    between atoms: _406  and  _407
REMARK  171  A    between atoms: _406  and  _409
REMARK  172  A    between atoms: _409  and  _410
REMARK  173  A    between atoms: _410  and  _411
REMARK  174  A    between atoms: _413  and  _415
REMARK  175  A    between atoms: _415  and  _416
REMARK  176  A    between atoms: _415  and  _418
REMARK  177  A    between atoms: _418  and  _419
REMARK  178  A    between atoms: _422  and  _424
REMARK  179  A    between atoms: _424  and  _425
REMARK  180  A    between atoms: _427  and  _429
REMARK  181  A    between atoms: _429  and  _430
REMARK  182  A    between atoms: _432  and  _434
REMARK  183  A    between atoms: _434  and  _435
REMARK  184  A    between atoms: _434  and  _437
REMARK  185  A    between atoms: _440  and  _442
REMARK  186  A    between atoms: _442  and  _443
REMARK  187  A    between atoms: _445  and  _447
REMARK  188  A    between atoms: _447  and  _448
REMARK  189  A    between atoms: _450  and  _452
REMARK  190  A    between atoms: _452  and  _453
REMARK  191  A    between atoms: _452  and  _455
REMARK  192  A    between atoms: _455  and  _456
REMARK  193  A    between atoms: _462  and  _464
REMARK  194  A    between atoms: _464  and  _465
REMARK  195  A    between atoms: _464  and  _467
REMARK  196  A    between atoms: _467  and  _468
REMARK  197  A    between atoms: _471  and  _473
REMARK  198  A    between atoms: _473  and  _474
REMARK  199  A    between atoms: _473  and  _476
REMARK  200  A    between atoms: _479  and  _481
REMARK  201  A    between atoms: _481  and  _482
REMARK  202  A    between atoms: _481  and  _484
REMARK  203  A    between atoms: _484  and  _485
REMARK  204  A    between atoms: _489  and  _490
REMARK  205  A    between atoms: _495  and  _497
REMARK  206  A    between atoms: _497  and  _498
REMARK  207  A    between atoms: _497  and  _500
REMARK  208  A    between atoms: _500  and  _501
REMARK  209  A    between atoms: _505  and  _506
REMARK  210  A    between atoms: _511  and  _513
REMARK  211  A    between atoms: _513  and  _514
REMARK  212  A    between atoms: _513  and  _516
REMARK  213  A    between atoms: _519  and  _521
REMARK  214  A    between atoms: _521  and  _522
REMARK  215  A    between atoms: _521  and  _524
REMARK  216  A    between atoms: _524  and  _525
REMARK  217  A    between atoms: _530  and  _532
REMARK  218  A    between atoms: _532  and  _533
REMARK  219  A    between atoms: _532  and  _535
REMARK  220  A    between atoms: _535  and  _536
REMARK  221  A    between atoms: _539  and  _541
REMARK  222  A    between atoms: _541  and  _542
REMARK  223  A    between atoms: _541  and  _544
REMARK  224  A    between atoms: _544  and  _545
REMARK  225  A    between atoms: _548  and  _550
REMARK  226  A    between atoms: _550  and  _551
REMARK  227  A    between atoms: _553  and  _555
REMARK  228  A    between atoms: _555  and  _556
REMARK  229  A    between atoms: _555  and  _558
REMARK  230  A    between atoms: _558  and  _559
REMARK  231  A    between atoms: _559  and  _560
REMARK  232  A    between atoms: _560  and  _561
REMARK  233  A    between atoms: _570  and  _572
REMARK  234  A    between atoms: _572  and  _573
REMARK  235  A    between atoms: _572  and  _575
REMARK  236  A    between atoms: _575  and  _576
REMARK                            x       y       z     vdW  Elec       q    Type
REMARK                         _______ _______ _______ _____ _____    ______ ____
ROOT
ATOM      1  C   GLY A   5      10.828  24.073  18.944  0.00  0.00    +0.243 C 
ATOM      2  N   ALA A   6      10.656  23.750  20.221  0.00  0.00    -0.297 N 
ATOM      3  H   ALA A   6      10.456  24.515  20.896  0.00  0.00    +0.150 HD
ATOM      4  O   GLY A   5      11.075  23.232  18.071  0.00  0.00    -0.273 OA
ENDROOT
BRANCH   2   5
ATOM      5  CA  ALA A   6      10.731  22.387  20.733  0.00  0.00    +0.149 C 
ATOM      6  CB  ALA A   6      11.696  22.293  21.918  0.00  0.00    +0.031 C 
BRANCH   5   7
ATOM      7  C   ALA A   6       9.350  21.922  21.173  0.00  0.00    +0.241 C 
ATOM      8  O   ALA A   6       8.689  22.573  21.977  0.00  0.00    -0.273 OA
ATOM      9  N   ASP A   7       8.938  20.772  20.668  0.00  0.00    -0.297 N 
ATOM     10  H   ASP A   7       9.504  20.284  19.945  0.00  0.00    +0.150 HD
BRANCH   9  11
ATOM     11  CA  ASP A   7       7.679  20.191  21.134  0.00  0.00    +0.160 C 
BRANCH  11  12
ATOM     12  C   ASP A   7       7.761  19.780  22.593  0.00  0.00    +0.241 C 
ATOM     13  O   ASP A   7       6.795  19.884  23.348  0.00  0.00    -0.273 OA
ATOM     14  N   ASP A   8       8.911  19.245  22.959  0.00  0.00    -0.297 N 
ATOM     15  H   ASP A   8       9.716  19.347  22.308  0.00  0.00    +0.150 HD
BRANCH  14  16
ATOM     16  CA  ASP A   8       9.140  18.525  24.200  0.00  0.00    +0.160 C 
BRANCH  16  17
ATOM     17  C   ASP A   8      10.268  19.138  24.987  0.00  0.00    +0.241 C 
ATOM     18  N   THR A   9      10.422  18.714  26.230  0.00  0.00    -0.295 N 
ATOM     19  H   THR A   9       9.714  18.047  26.598  0.00  0.00    +0.150 HD
ATOM     20  O   ASP A   8      11.043  19.937  24.493  0.00  0.00    -0.273 OA
BRANCH  18  21
ATOM     21  CA  THR A   9      11.494  19.102  27.121  0.00  0.00    +0.176 C 
BRANCH  21  22
ATOM     22  C   THR A   9      12.547  18.008  27.160  0.00  0.00    +0.243 C 
ATOM     23  O   THR A   9      12.211  16.826  27.381  0.00  0.00    -0.273 OA
ATOM     24  N   VAL A  10      13.787  18.358  26.880  0.00  0.00    -0.298 N 
ATOM     25  H   VAL A  10      13.995  19.367  26.741  0.00  0.00    +0.150 HD
BRANCH  24  26
ATOM     26  CA  VAL A  10      14.867  17.415  26.757  0.00  0.00    +0.137 C 
BRANCH  26  27
ATOM     27  CB  VAL A  10      15.296  17.238  25.283  0.00  0.00    +0.026 C 
ATOM     28  CG2 VAL A  10      16.163  15.975  25.167  0.00  0.00    +0.002 C 
ATOM     29  CG1 VAL A  10      14.102  17.206  24.367  0.00  0.00    +0.002 C 
ENDBRANCH  26  27
BRANCH  26  30
ATOM     30  C   VAL A  10      16.044  17.883  27.591  0.00  0.00    +0.227 C 
ATOM     31  O   VAL A  10      16.521  19.017  27.434  0.00  0.00    -0.286 OA
ENDBRANCH  26  30
ENDBRANCH  24  26
ENDBRANCH  21  22
BRANCH  21  32
ATOM     32  CB  THR A   9      10.866  19.346  28.517  0.00  0.00    +0.137 C 
ATOM     33  CG2 THR A   9      11.912  19.598  29.582  0.00  0.00    +0.034 C 
BRANCH  32  34
ATOM     34  OG1 THR A   9      10.031  20.525  28.393  0.00  0.00    -0.382 OA
ATOM     35  HG1 THR A   9       9.330  20.362  27.713  0.00  0.00    +0.210 HD
ENDBRANCH  32  34
ENDBRANCH  21  32
ENDBRANCH  18  21
ENDBRANCH  16  17
BRANCH  16  36
ATOM     36  CB  ASP A   8       9.519  17.075  23.872  0.00  0.00    +0.143 C 
BRANCH  36  37
ATOM     37  CG  ASP A   8       8.504  16.415  22.974  0.00  0.00    +0.367 C 
ATOM     38  OD2 ASP A   8       7.296  16.357  23.323  0.00  0.00    -0.246 OA
ATOM     39  OD1 ASP A   8       8.872  15.993  21.866  0.00  0.00    -0.246 OA
ENDBRANCH  36  37
ENDBRANCH  16  36
ENDBRANCH  14  16
ENDBRANCH  11  12
BRANCH  11  40
ATOM     40  CB  ASP A   7       7.338  18.955  20.283  0.00  0.00    +0.143 C 
BRANCH  40  41
ATOM     41  CG  ASP A   7       7.094  19.168  18.803  0.00  0.00    +0.367 C 
ATOM     42  OD2 ASP A   7       6.814  20.306  18.358  0.00  0.00    -0.246 OA
ATOM     43  OD1 ASP A   7       7.161  18.147  18.064  0.00  0.00    -0.246 OA
ENDBRANCH  40  41
ENDBRANCH  11  40
ENDBRANCH   9  11
ENDBRANCH   5   7
ENDBRANCH   2   5
BRANCH   1  44
ATOM     44  CA  GLY A   5      10.637  25.518  18.534  0.00  0.00    +0.176 C 
BRANCH  44  47
ATOM     45  C   THR A   4       9.301  26.703  20.195  0.00  0.00    +0.243 C 
ATOM     46  O   THR A   4       8.252  26.244  19.760  0.00  0.00    -0.273 OA
ATOM     47  N   GLY A   5      10.473  26.411  19.667  0.00  0.00    -0.295 N 
ATOM     48  H   GLY A   5      11.323  26.842  20.083  0.00  0.00    +0.150 HD
BRANCH  45  49
ATOM     49  CA  THR A   4       9.304  27.605  21.408  0.00  0.00    +0.176 C 
BRANCH  49  52
ATOM     50  C   ASP A   3      11.119  26.646  22.670  0.00  0.00    +0.241 C 
ATOM     51  O   ASP A   3      10.538  25.562  22.701  0.00  0.00    -0.273 OA
ATOM     52  N   THR A   4      10.582  27.690  22.056  0.00  0.00    -0.295 N 
ATOM     53  H   THR A   4      11.099  28.592  22.043  0.00  0.00    +0.150 HD
BRANCH  50  54
ATOM     54  CA  ASP A   3      12.473  26.848  23.291  0.00  0.00    +0.160 C 
BRANCH  54  56
ATOM     55  C   LEU A   2      13.028  28.238  25.258  0.00  0.00    +0.241 C 
ATOM     56  N   ASP A   3      12.430  27.153  24.747  0.00  0.00    -0.297 N 
ATOM     57  H   ASP A   3      11.922  26.507  25.385  0.00  0.00    +0.150 HD
ATOM     58  O   LEU A   2      13.503  29.134  24.579  0.00  0.00    -0.273 OA
BRANCH  55  59
ATOM     59  CA  LEU A   2      13.203  28.259  26.765  0.00  0.00    +0.149 C 
BRANCH  59  61
ATOM     60  C   LEU A   1      15.318  27.090  26.997  0.00  0.00    +0.238 C 
ATOM     61  N   LEU A   2      14.624  28.220  27.098  0.00  0.00    -0.297 N 
ATOM     62  H   LEU A   2      15.100  29.087  27.418  0.00  0.00    +0.150 HD
ATOM     63  O   LEU A   1      14.800  26.015  26.685  0.00  0.00    -0.274 OA
BRANCH  60  64
ATOM     64  CA  LEU A   1      16.818  27.148  27.228  0.00  0.00    +0.145 C 
BRANCH  64  65
ATOM     65  N   LEU A   1      17.210  26.240  28.276  0.00  0.00    -0.238 NA
ATOM     66  H   LEU A   1      17.318  25.242  28.004  0.00  0.00    +0.142 HD
ENDBRANCH  64  65
BRANCH  64  67
ATOM     67  CB  LEU A   1      17.590  26.753  25.972  0.00  0.00    +0.026 C 
BRANCH  67  68
ATOM     68  CG  LEU A   1      17.516  27.601  24.757  0.00  0.00    +0.002 C 
ATOM     69  CD2 LEU A   1      18.160  28.996  24.998  0.00  0.00    +0.000 C 
ATOM     70  CD1 LEU A   1      18.186  26.928  23.571  0.00  0.00    +0.000 C 
ENDBRANCH  67  68
ENDBRANCH  64  67
ENDBRANCH  60  64
ENDBRANCH  59  61
BRANCH  59  71
ATOM     71  CB  LEU A   2      12.518  29.480  27.345  0.00  0.00    +0.029 C 
BRANCH  71  72
ATOM     72  CG  LEU A   2      12.648  29.673  28.844  0.00  0.00    +0.002 C 
ATOM     73  CD2 LEU A   2      12.034  28.538  29.616  0.00  0.00    +0.000 C 
ATOM     74  CD1 LEU A   2      11.957  31.000  29.265  0.00  0.00    +0.000 C 
ENDBRANCH  71  72
ENDBRANCH  59  71
ENDBRANCH  55  59
ENDBRANCH  54  56
BRANCH  54  75
ATOM     75  CB  ASP A   3      13.333  25.585  23.128  0.00  0.00    +0.143 C 
BRANCH  75  76
ATOM     76  CG  ASP A   3      13.679  25.371  21.708  0.00  0.00    +0.367 C 
ATOM     77  OD2 ASP A   3      14.425  24.417  21.415  0.00  0.00    -0.246 OA
ATOM     78  OD1 ASP A   3      13.176  26.156  20.829  0.00  0.00    -0.246 OA
ENDBRANCH  75  76
ENDBRANCH  54  75
ENDBRANCH  50  54
ENDBRANCH  49  52
BRANCH  49  79
ATOM     79  CB  THR A   4       8.814  29.000  20.978  0.00  0.00    +0.137 C 
ATOM     80  CG2 THR A   4       8.614  29.880  22.195  0.00  0.00    +0.034 C 
BRANCH  79  81
ATOM     81  OG1 THR A   4       9.769  29.596  20.095  0.00  0.00    -0.382 OA
ATOM     82  HG1 THR A   4       9.878  29.025  19.294  0.00  0.00    +0.210 HD
ENDBRANCH  79  81
ENDBRANCH  49  79
ENDBRANCH  45  49
ENDBRANCH  44  47
ENDBRANCH   1  44
TORSDOF 35
REMARK  Name = ../refined-set-2016/2avq/2avq_pocket.pdb
REMARK  236 active torsions:
REMARK  status: ('A' for Active; 'I' for Inactive)
REMARK    1  A    between atoms: _1  and  _3
REMARK    2  A    between atoms: _3  and  _4
REMARK    3  A    between atoms: _3  and  _6
REMARK    4  A    between atoms: _6  and  _7
REMARK    5  A    between atoms: _7  and  _8
REMARK    6  A    between atoms: _8  and  _9
REMARK    7  A    between atoms: _18  and  _20
REMARK    8  A    between atoms: _20  and  _21
REMARK    9  A    between atoms: _20  and  _23
REMARK   10  A    between atoms: _23  and  _24
REMARK   11  A    between atoms: _27  and  _29
REMARK   12  A    between atoms: _29  and  _30
REMARK   13  A    between atoms: _29  and  _32
REMARK   14  A    between atoms: _32  and  _33
REMARK   15  A    between atoms: _36  and  _38
REMARK   16  A    between atoms: _38  and  _39
REMARK   17  A    between atoms: _38  and  _41
REMARK   18  A    between atoms: _41  and  _42
REMARK   19  A    between atoms: _45  and  _47
REMARK   20  A    between atoms: _47  and  _48
REMARK   21  A    between atoms: _47  and  _50
REMARK   22  A    between atoms: _50  and  _51
REMARK   23  A    between atoms: _54  and  _56
REMARK   24  A    between atoms: _56  and  _57
REMARK   25  A    between atoms: _56  and  _59
REMARK   26  A    between atoms: _59  and  _60
REMARK   27  A    between atoms: _63  and  _65
REMARK   28  A    between atoms: _65  and  _66
REMARK   29  A    between atoms: _68  and  _70
REMARK   30  A    between atoms: _70  and  _71
REMARK   31  A    between atoms: _74  and  _76
REMARK   32  A    between atoms: _76  and  _77
REMARK   33  A    between atoms: _76  and  _79
REMARK   34  A    between atoms: _79  and  _80
REMARK   35  A    between atoms: _83  and  _85
REMARK   36  A    between atoms: _85  and  _86
REMARK   37  A    between atoms: _85  and  _88
REMARK   38  A    between atoms: _88  and  _89
REMARK   39  A    between atoms: _92  and  _94
REMARK   40  A    between atoms: _94  and  _95
REMARK   41  A    between atoms: _94  and  _97
REMARK   42  A    between atoms: _97  and  _98
REMARK   43  A    between atoms: _101  and  _103
REMARK   44  A    between atoms: _103  and  _104
REMARK   45  A    between atoms: _103  and  _106
REMARK   46  A    between atoms: _109  and  _111
REMARK   47  A    between atoms: _111  and  _112
REMARK   48  A    between atoms: _111  and  _114
REMARK   49  A    between atoms: _114  and  _115
REMARK   50  A    between atoms: _115  and  _116
REMARK   51  A    between atoms: _116  and  _117
REMARK   52  A    between atoms: _117  and  _118
REMARK   53  A    between atoms: _122  and  _124
REMARK   54  A    between atoms: _124  and  _125
REMARK   55  A    between atoms: _124  and  _127
REMARK   56  A    between atoms: _127  and  _128
REMARK   57  A    between atoms: _128  and  _129
REMARK   58  A    between atoms: _131  and  _133
REMARK   59  A    between atoms: _133  and  _134
REMARK   60  A    between atoms: _133  and  _136
REMARK   61  A    between atoms: _136  and  _137
REMARK   62  A    between atoms: _140  and  _142
REMARK   63  A    between atoms: _142  and  _143
REMARK   64  A    between atoms: _145  and  _147
REMARK   65  A    between atoms: _147  and  _148
REMARK   66  A    between atoms: _150  and  _152
REMARK   67  A    between atoms: _152  and  _153
REMARK   68  A    between atoms: _152  and  _155
REMARK   69  A    between atoms: _158  and  _160
REMARK   70  A    between atoms: _160  and  _161
REMARK   71  A    between atoms: _163  and  _165
REMARK   72  A    between atoms: _165  and  _166
REMARK   73  A    between atoms: _168  and  _170
REMARK   74  A    between atoms: _170  and  _171
REMARK   75  A    between atoms: _170  and  _173
REMARK   76  A    between atoms: _173  and  _174
REMARK   77  A    between atoms: _180  and  _182
REMARK   78  A    between atoms: _182  and  _183
REMARK   79  A    between atoms: _182  and  _185
REMARK   80  A    between atoms: _185  and  _186
REMARK   81  A    between atoms: _189  and  _191
REMARK   82  A    between atoms: _191  and  _192
REMARK   83  A    between atoms: _191  and  _194
REMARK   84  A    between atoms: _197  and  _199
REMARK   85  A    between atoms: _199  and  _200
REMARK   86  A    between atoms: _199  and  _202
REMARK   87  A    between atoms: _202  and  _203
REMARK   88  A    between atoms: _206  and  _208
REMARK   89  A    between atoms: _208  and  _209
REMARK   90  A    between atoms: _208  and  _211
REMARK   91  A    between atoms: _211  and  _212
REMARK   92  A    between atoms: _216  and  _217
REMARK   93  A    between atoms: _222  and  _224
REMARK   94  A    between atoms: _224  and  _225
REMARK   95  A    between atoms: _224  and  _227
REMARK   96  A    between atoms: _230  and  _232
REMARK   97  A    between atoms: _232  and  _233
REMARK   98  A    between atoms: _232  and  _235
REMARK   99  A    between atoms: _235  and  _236
REMARK  100  A    between atoms: _241  and  _243
REMARK  101  A    between atoms: _243  and  _244
REMARK  102  A    between atoms: _243  and  _246
REMARK  103  A    between atoms: _246  and  _247
REMARK  104  A    between atoms: _250  and  _252
REMARK  105  A    between atoms: _252  and  _253
REMARK  106  A    between atoms: _252  and  _255
REMARK  107  A    between atoms: _255  and  _256
REMARK  108  A    between atoms: _259  and  _261
REMARK  109  A    between atoms: _261  and  _262
REMARK  110  A    between atoms: _264  and  _266
REMARK  111  A    between atoms: _266  and  _267
REMARK  112  A    between atoms: _266  and  _269
REMARK  113  A    between atoms: _269  and  _270
REMARK  114  A    between atoms: _270  and  _271
REMARK  115  A    between atoms: _271  and  _272
REMARK  116  A    between atoms: _281  and  _283
REMARK  117  A    between atoms: _283  and  _284
REMARK  118  A    between atoms: _283  and  _286
REMARK  119  A    between atoms: _286  and  _287
REMARK  120  A    between atoms: _292  and  _294
REMARK  121  A    between atoms: _294  and  _295
REMARK  122  A    between atoms: _294  and  _297
REMARK  123  A    between atoms: _297  and  _298
REMARK  124  A    between atoms: _298  and  _299
REMARK  125  A    between atoms: _299  and  _300
REMARK  126  A    between atoms: _302  and  _303
REMARK  127  A    between atoms: _309  and  _311
REMARK  128  A    between atoms: _311  and  _312
REMARK  129  A    between atoms: _311  and  _314
REMARK  130  A    between atoms: _314  and  _315
REMARK  131  A    between atoms: _318  and  _320
REMARK  132  A    between atoms: _320  and  _321
REMARK  133  A    between atoms: _320  and  _323
REMARK  134  A    between atoms: _323  and  _324
REMARK  135  A    between atoms: _327  and  _329
REMARK  136  A    between atoms: _329  and  _330
REMARK  137  A    between atoms: _329  and  _332
REMARK  138  A    between atoms: _332  and  _333
REMARK  139  A    between atoms: _336  and  _338
REMARK  140  A    between atoms: _338  and  _339
REMARK  141  A    between atoms: _338  and  _341
REMARK  142  A    between atoms: _341  and  _342
REMARK  143  A    between atoms: _345  and  _347
REMARK  144  A    between atoms: _347  and  _348
REMARK  145  A    between atoms: _350  and  _352
REMARK  146  A    between atoms: _352  and  _353
REMARK  147  A    between atoms: _356  and  _358
REMARK  148  A    between atoms: _358  and  _359
REMARK  149  A    between atoms: _358  and  _361
REMARK  150  A    between atoms: _361  and  _362
REMARK  151  A    between atoms: _365  and  _367
REMARK  152  A    between atoms: _367  and  _368
REMARK  153  A    between atoms: _367  and  _370
REMARK  154  A    between atoms: _370  and  _371
REMARK  155  A    between atoms: _374  and  _376
REMARK  156  A    between atoms: _376  and  _377
REMARK  157  A    between atoms: _376  and  _379
REMARK  158  A    between atoms: _379  and  _380
REMARK  159  A    between atoms: _383  and  _385
REMARK  160  A    between atoms: _385  and  _386
REMARK  161  A    between atoms: _385  and  _388
REMARK  162  A    between atoms: _391  and  _393
REMARK  163  A    between atoms: _393  and  _394
REMARK  164  A    between atoms: _393  and  _396
REMARK  165  A    between atoms: _396  and  _397
REMARK  166  A    between atoms: _397  and  _398
REMARK  167  A    between atoms: _398  and  _399
REMARK  168  A    between atoms: _399  and  _400
REMARK  169  A    between atoms: _404  and  _406
REMARK  170  A    between atoms: _406  and  _407
REMARK  171  A    between atoms: _406  and  _409
REMARK  172  A    between atoms: _409  and  _410
REMARK  173  A    between atoms: _410  and  _411
REMARK  174  A    between atoms: _413  and  _415
REMARK  175  A    between atoms: _415  and  _416
REMARK  176  A    between atoms: _415  and  _418
REMARK  177  A    between atoms: _418  and  _419
REMARK  178  A    between atoms: _422  and  _424
REMARK  179  A    between atoms: _424  and  _425
REMARK  180  A    between atoms: _427  and  _429
REMARK  181  A    between atoms: _429  and  _430
REMARK  182  A    between atoms: _432  and  _434
REMARK  183  A    between atoms: _434  and  _435
REMARK  184  A    between atoms: _434  and  _437
REMARK  185  A    between atoms: _440  and  _442
REMARK  186  A    between atoms: _442  and  _443
REMARK  187  A    between atoms: _445  and  _447
REMARK  188  A    between atoms: _447  and  _448
REMARK  189  A    between atoms: _450  and  _452
REMARK  190  A    between atoms: _452  and  _453
REMARK  191  A    between atoms: _452  and  _455
REMARK  192  A    between atoms: _455  and  _456
REMARK  193  A    between atoms: _462  and  _464
REMARK  194  A    between atoms: _464  and  _465
REMARK  195  A    between atoms: _464  and  _467
REMARK  196  A    between atoms: _467  and  _468
REMARK  197  A    between atoms: _471  and  _473
REMARK  198  A    between atoms: _473  and  _474
REMARK  199  A    between atoms: _473  and  _476
REMARK  200  A    between atoms: _479  and  _481
REMARK  201  A    between atoms: _481  and  _482
REMARK  202  A    between atoms: _481  and  _484
REMARK  203  A    between atoms: _484  and  _485
REMARK  204  A    between atoms: _489  and  _490
REMARK  205  A    between atoms: _495  and  _497
REMARK  206  A    between atoms: _497  and  _498
REMARK  207  A    between atoms: _497  and  _500
REMARK  208  A    between atoms: _500  and  _501
REMARK  209  A    between atoms: _505  and  _506
REMARK  210  A    between atoms: _511  and  _513
REMARK  211  A    between atoms: _513  and  _514
REMARK  212  A    between atoms: _513  and  _516
REMARK  213  A    between atoms: _519  and  _521
REMARK  214  A    between atoms: _521  and  _522
REMARK  215  A    between atoms: _521  and  _524
REMARK  216  A    between atoms: _524  and  _525
REMARK  217  A    between atoms: _530  and  _532
REMARK  218  A    between atoms: _532  and  _533
REMARK  219  A    between atoms: _532  and  _535
REMARK  220  A    between atoms: _535  and  _536
REMARK  221  A    between atoms: _539  and  _541
REMARK  222  A    between atoms: _541  and  _542
REMARK  223  A    between atoms: _541  and  _544
REMARK  224  A    between atoms: _544  and  _545
REMARK  225  A    between atoms: _548  and  _550
REMARK  226  A    between atoms: _550  and  _551
REMARK  227  A    between atoms: _553  and  _555
REMARK  228  A    between atoms: _555  and  _556
REMARK  229  A    between atoms: _555  and  _558
REMARK  230  A    between atoms: _558  and  _559
REMARK  231  A    between atoms: _559  and  _560
REMARK  232  A    between atoms: _560  and  _561
REMARK  233  A    between atoms: _570  and  _572
REMARK  234  A    between atoms: _572  and  _573
REMARK  235  A    between atoms: _572  and  _575
REMARK  236  A    between atoms: _575  and  _576
REMARK                            x       y       z     vdW  Elec       q    Type
REMARK                         _______ _______ _______ _____ _____    ______ ____
ROOT
ATOM      1  C   GLY A   5      16.915  18.594  13.934  0.00  0.00    +0.243 C 
ATOM      2  N   VAL A   6      17.651  19.690  13.935  0.00  0.00    -0.297 N 
ATOM      3  H   VAL A   6      17.810  20.223  14.814  0.00  0.00    +0.150 HD
ATOM      4  O   GLY A   5      16.805  17.878  12.966  0.00  0.00    -0.273 OA
ENDROOT
BRANCH   2   5
ATOM      5  CA  VAL A   6      18.230  20.132  12.688  0.00  0.00    +0.149 C 
BRANCH   5   6
ATOM      6  C   VAL A   6      19.227  19.141  12.133  0.00  0.00    +0.241 C 
ATOM      7  N   GLY A   7      19.928  18.372  12.935  0.00  0.00    -0.295 N 
ATOM      8  H   GLY A   7      19.766  18.419  13.961  0.00  0.00    +0.150 HD
ATOM      9  O   VAL A   6      19.389  19.112  10.920  0.00  0.00    -0.273 OA
BRANCH   7  10
ATOM     10  CA  GLY A   7      20.907  17.475  12.419  0.00  0.00    +0.176 C 
BRANCH  10  11
ATOM     11  C   GLY A   7      20.476  16.040  12.218  0.00  0.00    +0.243 C 
ATOM     12  N   GLY A   8      19.292  15.660  12.623  0.00  0.00    -0.295 N 
ATOM     13  H   GLY A   8      18.652  16.372  13.030  0.00  0.00    +0.150 HD
ATOM     14  O   GLY A   7      21.261  15.261  11.690  0.00  0.00    -0.273 OA
BRANCH  12  15
ATOM     15  CA  GLY A   8      18.831  14.277  12.527  0.00  0.00    +0.176 C 
BRANCH  15  16
ATOM     16  C   GLY A   8      18.122  13.837  13.774  0.00  0.00    +0.243 C 
ATOM     17  O   GLY A   8      17.564  14.652  14.478  0.00  0.00    -0.273 OA
ATOM     18  N   PHE A   9      18.100  12.576  14.068  0.00  0.00    -0.297 N 
ATOM     19  H   PHE A   9      18.670  11.945  13.469  0.00  0.00    +0.150 HD
BRANCH  18  20
ATOM     20  CA  PHE A   9      17.371  11.966  15.133  0.00  0.00    +0.153 C 
BRANCH  20  21
ATOM     21  C   PHE A   9      18.261  11.383  16.215  0.00  0.00    +0.241 C 
ATOM     22  N   ILE A  10      17.716  11.407  17.414  0.00  0.00    -0.298 N 
ATOM     23  H   ILE A  10      16.821  11.918  17.554  0.00  0.00    +0.150 HD
ATOM     24  O   PHE A   9      19.323  10.861  15.957  0.00  0.00    -0.273 OA
BRANCH  22  25
ATOM     25  CA  ILE A  10      18.327  10.745  18.534  0.00  0.00    +0.137 C 
BRANCH  25  26
ATOM     26  CB  ILE A  10      19.087  11.712  19.444  0.00  0.00    +0.026 C 
ATOM     27  CG2 ILE A  10      20.226  12.418  18.679  0.00  0.00    +0.002 C 
BRANCH  26  28
ATOM     28  CG1 ILE A  10      18.208  12.746  20.149  0.00  0.00    +0.002 C 
ATOM     29  CD1 ILE A  10      18.874  13.549  21.251  0.00  0.00    +0.000 C 
ENDBRANCH  26  28
ENDBRANCH  25  26
BRANCH  25  30
ATOM     30  C   ILE A  10      17.279  10.000  19.364  0.00  0.00    +0.227 C 
ATOM     31  O   ILE A  10      16.097  10.375  19.365  0.00  0.00    -0.286 OA
ENDBRANCH  25  30
ENDBRANCH  22  25
ENDBRANCH  20  21
BRANCH  20  32
ATOM     32  CB  PHE A   9      16.498  10.807  14.572  0.00  0.00    +0.055 C 
BRANCH  32  33
ATOM     33  CG  PHE A   9      15.565  11.366  13.523  0.00  0.00    -0.020 A 
ATOM     34  CD2 PHE A   9      14.357  11.904  13.901  0.00  0.00    -0.004 A 
ATOM     35  CE2 PHE A   9      13.482  12.443  12.969  0.00  0.00    -0.000 A 
ATOM     36  CZ  PHE A   9      13.890  12.441  11.652  0.00  0.00    -0.000 A 
ATOM     37  CE1 PHE A   9      15.105  11.894  11.249  0.00  0.00    -0.000 A 
ATOM     38  CD1 PHE A   9      15.973  11.346  12.189  0.00  0.00    -0.004 A 
ENDBRANCH  32  33
ENDBRANCH  20  32
ENDBRANCH  18  20
ENDBRANCH  15  16
ENDBRANCH  12  15
ENDBRANCH  10  11
ENDBRANCH   7  10
ENDBRANCH   5   6
BRANCH   5  39
ATOM     39  CB  VAL A   6      18.943  21.505  12.766  0.00  0.00    +0.027 C 
ATOM     40  CG2 VAL A   6      19.953  21.551  13.891  0.00  0.00    +0.002 C 
ATOM     41  CG1 VAL A   6      17.860  22.543  12.910  0.00  0.00    +0.002 C 
ENDBRANCH   5  39
ENDBRANCH   2   5
BRANCH   1  42
ATOM     42  CA  GLY A   5      16.259  18.276  15.241  0.00  0.00    +0.176 C 
BRANCH  42  45
ATOM     43  C   GLY A   4      14.833  16.472  15.916  0.00  0.00    +0.243 C 
ATOM     44  O   GLY A   4      14.102  17.206  16.556  0.00  0.00    -0.273 OA
ATOM     45  N   GLY A   5      15.929  16.903  15.324  0.00  0.00    -0.295 N 
ATOM     46  H   GLY A   5      16.576  16.207  14.902  0.00  0.00    +0.150 HD
BRANCH  43  47
ATOM     47  CA  GLY A   4      14.535  15.007  15.735  0.00  0.00    +0.176 C 
BRANCH  47  50
ATOM     48  C   ILE A   3      14.128  13.400  17.486  0.00  0.00    +0.241 C 
ATOM     49  O   ILE A   3      15.149  12.769  17.231  0.00  0.00    -0.273 OA
ATOM     50  N   GLY A   4      13.777  14.477  16.834  0.00  0.00    -0.295 N 
ATOM     51  H   GLY A   4      12.910  14.973  17.124  0.00  0.00    +0.150 HD
BRANCH  48  52
ATOM     52  CA  ILE A   3      13.200  12.925  18.596  0.00  0.00    +0.149 C 
BRANCH  52  54
ATOM     53  C   MET A   2      12.461  10.631  18.845  0.00  0.00    +0.241 C 
ATOM     54  N   ILE A   3      13.463  11.492  18.858  0.00  0.00    -0.297 N 
ATOM     55  H   ILE A   3      14.431  11.165  19.051  0.00  0.00    +0.150 HD
ATOM     56  O   MET A   2      11.258  10.896  18.696  0.00  0.00    -0.273 OA
BRANCH  53  57
ATOM     57  CA  MET A   2      12.854   9.181  19.076  0.00  0.00    +0.149 C 
BRANCH  57  60
ATOM     58  C   LYS A   1      12.274   8.324  21.273  0.00  0.00    +0.238 C 
ATOM     59  O   LYS A   1      13.448   8.401  21.656  0.00  0.00    -0.274 OA
ATOM     60  N   MET A   2      11.937   8.600  20.034  0.00  0.00    -0.297 N 
ATOM     61  H   MET A   2      10.966   8.391  19.727  0.00  0.00    +0.150 HD
BRANCH  58  62
ATOM     62  CA  LYS A   1      11.160   7.928  22.226  0.00  0.00    +0.145 C 
BRANCH  62  63
ATOM     63  N   LYS A   1      11.639   6.897  23.094  0.00  0.00    -0.238 NA
ATOM     64  H   LYS A   1      12.649   6.877  23.343  0.00  0.00    +0.142 HD
ENDBRANCH  62  63
BRANCH  62  65
ATOM     65  CB  LYS A   1      10.790   9.112  23.147  0.00  0.00    +0.026 C 
BRANCH  65  66
ATOM     66  CG  LYS A   1      10.542  10.457  22.517  0.00  0.00    -0.000 C 
BRANCH  66  67
ATOM     67  CD  LYS A   1       9.090  10.444  22.024  0.00  0.00    -0.024 C 
BRANCH  67  68
ATOM     68  CE  LYS A   1       8.645  11.857  21.773  0.00  0.00    -0.086 C 
BRANCH  68  69
ATOM     69  NZ  LYS A   1       7.199  12.056  21.600  0.00  0.00    +0.380 N 
ATOM     70  HZ1 LYS A   1       6.702  11.744  22.459  0.00  0.00    -0.089 HD
ATOM     71  HZ2 LYS A   1       7.007  13.064  21.433  0.00  0.00    -0.089 HD
ATOM     72  HZ3 LYS A   1       6.869  11.500  20.786  0.00  0.00    -0.089 HD
ENDBRANCH  68  69
ENDBRANCH  67  68
ENDBRANCH  66  67
ENDBRANCH  65  66
ENDBRANCH  62  65
ENDBRANCH  58  62
ENDBRANCH  57  60
BRANCH  57  73
ATOM     73  CB  MET A   2      12.858   8.338  17.811  0.00  0.00    +0.041 C 
BRANCH  73  74
ATOM     74  CG  MET A   2      13.769   7.124  17.752  0.00  0.00    +0.060 C 
BRANCH  74  75
ATOM     75  SD  MET A   2      14.473   6.717  16.138  0.00  0.00    -0.139 S 
ATOM     76  CE  MET A   2      13.868   7.962  15.030  0.00  0.00    +0.069 C 
ENDBRANCH  74  75
ENDBRANCH  73  74
ENDBRANCH  57  73
ENDBRANCH  53  57
ENDBRANCH  52  54
BRANCH  52  77
ATOM     77  CB  ILE A   3      13.349  13.788  19.844  0.00  0.00    +0.027 C 
ATOM     78  CG2 ILE A   3      12.236  13.455  20.816  0.00  0.00    +0.002 C 
BRANCH  77  79
ATOM     79  CG1 ILE A   3      14.728  13.699  20.474  0.00  0.00    +0.002 C 
ATOM     80  CD1 ILE A   3      15.003  14.728  21.567  0.00  0.00    +0.000 C 
ENDBRANCH  77  79
ENDBRANCH  52  77
ENDBRANCH  48  52
ENDBRANCH  47  50
ENDBRANCH  43  47
ENDBRANCH  42  45
ENDBRANCH   1  42
TORSDOF 35
REMARK  Name = ../refined-set-2016/2avq/2avq_pocket.pdb
REMARK  236 active torsions:
REMARK  status: ('A' for Active; 'I' for Inactive)
REMARK    1  A    between atoms: _1  and  _3
REMARK    2  A    between atoms: _3  and  _4
REMARK    3  A    between atoms: _3  and  _6
REMARK    4  A    between atoms: _6  and  _7
REMARK    5  A    between atoms: _7  and  _8
REMARK    6  A    between atoms: _8  and  _9
REMARK    7  A    between atoms: _18  and  _20
REMARK    8  A    between atoms: _20  and  _21
REMARK    9  A    between atoms: _20  and  _23
REMARK   10  A    between atoms: _23  and  _24
REMARK   11  A    between atoms: _27  and  _29
REMARK   12  A    between atoms: _29  and  _30
REMARK   13  A    between atoms: _29  and  _32
REMARK   14  A    between atoms: _32  and  _33
REMARK   15  A    between atoms: _36  and  _38
REMARK   16  A    between atoms: _38  and  _39
REMARK   17  A    between atoms: _38  and  _41
REMARK   18  A    between atoms: _41  and  _42
REMARK   19  A    between atoms: _45  and  _47
REMARK   20  A    between atoms: _47  and  _48
REMARK   21  A    between atoms: _47  and  _50
REMARK   22  A    between atoms: _50  and  _51
REMARK   23  A    between atoms: _54  and  _56
REMARK   24  A    between atoms: _56  and  _57
REMARK   25  A    between atoms: _56  and  _59
REMARK   26  A    between atoms: _59  and  _60
REMARK   27  A    between atoms: _63  and  _65
REMARK   28  A    between atoms: _65  and  _66
REMARK   29  A    between atoms: _68  and  _70
REMARK   30  A    between atoms: _70  and  _71
REMARK   31  A    between atoms: _74  and  _76
REMARK   32  A    between atoms: _76  and  _77
REMARK   33  A    between atoms: _76  and  _79
REMARK   34  A    between atoms: _79  and  _80
REMARK   35  A    between atoms: _83  and  _85
REMARK   36  A    between atoms: _85  and  _86
REMARK   37  A    between atoms: _85  and  _88
REMARK   38  A    between atoms: _88  and  _89
REMARK   39  A    between atoms: _92  and  _94
REMARK   40  A    between atoms: _94  and  _95
REMARK   41  A    between atoms: _94  and  _97
REMARK   42  A    between atoms: _97  and  _98
REMARK   43  A    between atoms: _101  and  _103
REMARK   44  A    between atoms: _103  and  _104
REMARK   45  A    between atoms: _103  and  _106
REMARK   46  A    between atoms: _109  and  _111
REMARK   47  A    between atoms: _111  and  _112
REMARK   48  A    between atoms: _111  and  _114
REMARK   49  A    between atoms: _114  and  _115
REMARK   50  A    between atoms: _115  and  _116
REMARK   51  A    between atoms: _116  and  _117
REMARK   52  A    between atoms: _117  and  _118
REMARK   53  A    between atoms: _122  and  _124
REMARK   54  A    between atoms: _124  and  _125
REMARK   55  A    between atoms: _124  and  _127
REMARK   56  A    between atoms: _127  and  _128
REMARK   57  A    between atoms: _128  and  _129
REMARK   58  A    between atoms: _131  and  _133
REMARK   59  A    between atoms: _133  and  _134
REMARK   60  A    between atoms: _133  and  _136
REMARK   61  A    between atoms: _136  and  _137
REMARK   62  A    between atoms: _140  and  _142
REMARK   63  A    between atoms: _142  and  _143
REMARK   64  A    between atoms: _145  and  _147
REMARK   65  A    between atoms: _147  and  _148
REMARK   66  A    between atoms: _150  and  _152
REMARK   67  A    between atoms: _152  and  _153
REMARK   68  A    between atoms: _152  and  _155
REMARK   69  A    between atoms: _158  and  _160
REMARK   70  A    between atoms: _160  and  _161
REMARK   71  A    between atoms: _163  and  _165
REMARK   72  A    between atoms: _165  and  _166
REMARK   73  A    between atoms: _168  and  _170
REMARK   74  A    between atoms: _170  and  _171
REMARK   75  A    between atoms: _170  and  _173
REMARK   76  A    between atoms: _173  and  _174
REMARK   77  A    between atoms: _180  and  _182
REMARK   78  A    between atoms: _182  and  _183
REMARK   79  A    between atoms: _182  and  _185
REMARK   80  A    between atoms: _185  and  _186
REMARK   81  A    between atoms: _189  and  _191
REMARK   82  A    between atoms: _191  and  _192
REMARK   83  A    between atoms: _191  and  _194
REMARK   84  A    between atoms: _197  and  _199
REMARK   85  A    between atoms: _199  and  _200
REMARK   86  A    between atoms: _199  and  _202
REMARK   87  A    between atoms: _202  and  _203
REMARK   88  A    between atoms: _206  and  _208
REMARK   89  A    between atoms: _208  and  _209
REMARK   90  A    between atoms: _208  and  _211
REMARK   91  A    between atoms: _211  and  _212
REMARK   92  A    between atoms: _216  and  _217
REMARK   93  A    between atoms: _222  and  _224
REMARK   94  A    between atoms: _224  and  _225
REMARK   95  A    between atoms: _224  and  _227
REMARK   96  A    between atoms: _230  and  _232
REMARK   97  A    between atoms: _232  and  _233
REMARK   98  A    between atoms: _232  and  _235
REMARK   99  A    between atoms: _235  and  _236
REMARK  100  A    between atoms: _241  and  _243
REMARK  101  A    between atoms: _243  and  _244
REMARK  102  A    between atoms: _243  and  _246
REMARK  103  A    between atoms: _246  and  _247
REMARK  104  A    between atoms: _250  and  _252
REMARK  105  A    between atoms: _252  and  _253
REMARK  106  A    between atoms: _252  and  _255
REMARK  107  A    between atoms: _255  and  _256
REMARK  108  A    between atoms: _259  and  _261
REMARK  109  A    between atoms: _261  and  _262
REMARK  110  A    between atoms: _264  and  _266
REMARK  111  A    between atoms: _266  and  _267
REMARK  112  A    between atoms: _266  and  _269
REMARK  113  A    between atoms: _269  and  _270
REMARK  114  A    between atoms: _270  and  _271
REMARK  115  A    between atoms: _271  and  _272
REMARK  116  A    between atoms: _281  and  _283
REMARK  117  A    between atoms: _283  and  _284
REMARK  118  A    between atoms: _283  and  _286
REMARK  119  A    between atoms: _286  and  _287
REMARK  120  A    between atoms: _292  and  _294
REMARK  121  A    between atoms: _294  and  _295
REMARK  122  A    between atoms: _294  and  _297
REMARK  123  A    between atoms: _297  and  _298
REMARK  124  A    between atoms: _298  and  _299
REMARK  125  A    between atoms: _299  and  _300
REMARK  126  A    between atoms: _302  and  _303
REMARK  127  A    between atoms: _309  and  _311
REMARK  128  A    between atoms: _311  and  _312
REMARK  129  A    between atoms: _311  and  _314
REMARK  130  A    between atoms: _314  and  _315
REMARK  131  A    between atoms: _318  and  _320
REMARK  132  A    between atoms: _320  and  _321
REMARK  133  A    between atoms: _320  and  _323
REMARK  134  A    between atoms: _323  and  _324
REMARK  135  A    between atoms: _327  and  _329
REMARK  136  A    between atoms: _329  and  _330
REMARK  137  A    between atoms: _329  and  _332
REMARK  138  A    between atoms: _332  and  _333
REMARK  139  A    between atoms: _336  and  _338
REMARK  140  A    between atoms: _338  and  _339
REMARK  141  A    between atoms: _338  and  _341
REMARK  142  A    between atoms: _341  and  _342
REMARK  143  A    between atoms: _345  and  _347
REMARK  144  A    between atoms: _347  and  _348
REMARK  145  A    between atoms: _350  and  _352
REMARK  146  A    between atoms: _352  and  _353
REMARK  147  A    between atoms: _356  and  _358
REMARK  148  A    between atoms: _358  and  _359
REMARK  149  A    between atoms: _358  and  _361
REMARK  150  A    between atoms: _361  and  _362
REMARK  151  A    between atoms: _365  and  _367
REMARK  152  A    between atoms: _367  and  _368
REMARK  153  A    between atoms: _367  and  _370
REMARK  154  A    between atoms: _370  and  _371
REMARK  155  A    between atoms: _374  and  _376
REMARK  156  A    between atoms: _376  and  _377
REMARK  157  A    between atoms: _376  and  _379
REMARK  158  A    between atoms: _379  and  _380
REMARK  159  A    between atoms: _383  and  _385
REMARK  160  A    between atoms: _385  and  _386
REMARK  161  A    between atoms: _385  and  _388
REMARK  162  A    between atoms: _391  and  _393
REMARK  163  A    between atoms: _393  and  _394
REMARK  164  A    between atoms: _393  and  _396
REMARK  165  A    between atoms: _396  and  _397
REMARK  166  A    between atoms: _397  and  _398
REMARK  167  A    between atoms: _398  and  _399
REMARK  168  A    between atoms: _399  and  _400
REMARK  169  A    between atoms: _404  and  _406
REMARK  170  A    between atoms: _406  and  _407
REMARK  171  A    between atoms: _406  and  _409
REMARK  172  A    between atoms: _409  and  _410
REMARK  173  A    between atoms: _410  and  _411
REMARK  174  A    between atoms: _413  and  _415
REMARK  175  A    between atoms: _415  and  _416
REMARK  176  A    between atoms: _415  and  _418
REMARK  177  A    between atoms: _418  and  _419
REMARK  178  A    between atoms: _422  and  _424
REMARK  179  A    between atoms: _424  and  _425
REMARK  180  A    between atoms: _427  and  _429
REMARK  181  A    between atoms: _429  and  _430
REMARK  182  A    between atoms: _432  and  _434
REMARK  183  A    between atoms: _434  and  _435
REMARK  184  A    between atoms: _434  and  _437
REMARK  185  A    between atoms: _440  and  _442
REMARK  186  A    between atoms: _442  and  _443
REMARK  187  A    between atoms: _445  and  _447
REMARK  188  A    between atoms: _447  and  _448
REMARK  189  A    between atoms: _450  and  _452
REMARK  190  A    between atoms: _452  and  _453
REMARK  191  A    between atoms: _452  and  _455
REMARK  192  A    between atoms: _455  and  _456
REMARK  193  A    between atoms: _462  and  _464
REMARK  194  A    between atoms: _464  and  _465
REMARK  195  A    between atoms: _464  and  _467
REMARK  196  A    between atoms: _467  and  _468
REMARK  197  A    between atoms: _471  and  _473
REMARK  198  A    between atoms: _473  and  _474
REMARK  199  A    between atoms: _473  and  _476
REMARK  200  A    between atoms: _479  and  _481
REMARK  201  A    between atoms: _481  and  _482
REMARK  202  A    between atoms: _481  and  _484
REMARK  203  A    between atoms: _484  and  _485
REMARK  204  A    between atoms: _489  and  _490
REMARK  205  A    between atoms: _495  and  _497
REMARK  206  A    between atoms: _497  and  _498
REMARK  207  A    between atoms: _497  and  _500
REMARK  208  A    between atoms: _500  and  _501
REMARK  209  A    between atoms: _505  and  _506
REMARK  210  A    between atoms: _511  and  _513
REMARK  211  A    between atoms: _513  and  _514
REMARK  212  A    between atoms: _513  and  _516
REMARK  213  A    between atoms: _519  and  _521
REMARK  214  A    between atoms: _521  and  _522
REMARK  215  A    between atoms: _521  and  _524
REMARK  216  A    between atoms: _524  and  _525
REMARK  217  A    between atoms: _530  and  _532
REMARK  218  A    between atoms: _532  and  _533
REMARK  219  A    between atoms: _532  and  _535
REMARK  220  A    between atoms: _535  and  _536
REMARK  221  A    between atoms: _539  and  _541
REMARK  222  A    between atoms: _541  and  _542
REMARK  223  A    between atoms: _541  and  _544
REMARK  224  A    between atoms: _544  and  _545
REMARK  225  A    between atoms: _548  and  _550
REMARK  226  A    between atoms: _550  and  _551
REMARK  227  A    between atoms: _553  and  _555
REMARK  228  A    between atoms: _555  and  _556
REMARK  229  A    between atoms: _555  and  _558
REMARK  230  A    between atoms: _558  and  _559
REMARK  231  A    between atoms: _559  and  _560
REMARK  232  A    between atoms: _560  and  _561
REMARK  233  A    between atoms: _570  and  _572
REMARK  234  A    between atoms: _572  and  _573
REMARK  235  A    between atoms: _572  and  _575
REMARK  236  A    between atoms: _575  and  _576
REMARK                            x       y       z     vdW  Elec       q    Type
REMARK                         _______ _______ _______ _____ _____    ______ ____
ROOT
ATOM      1  CA  VAL A   1      15.888   9.514  24.423  0.00  0.00    +0.133 C 
ENDROOT
BRANCH   1   2
ATOM      2  CB  VAL A   1      15.396  10.962  24.449  0.00  0.00    +0.023 C 
ATOM      3  CG2 VAL A   1      14.016  11.070  23.884  0.00  0.00    +0.002 C 
ATOM      4  CG1 VAL A   1      16.350  11.877  23.717  0.00  0.00    +0.002 C 
ENDBRANCH   1   2
BRANCH   1   5
ATOM      5  N   VAL A   1      15.961   8.974  23.085  0.00  0.00    -0.239 NA
ATOM      6  H   VAL A   1      15.085   8.655  22.624  0.00  0.00    +0.142 HD
ENDBRANCH   1   5
BRANCH   1   7
ATOM      7  C   VAL A   1      15.016   8.625  25.312  0.00  0.00    +0.224 C 
ATOM      8  O   VAL A   1      14.262   7.769  24.825  0.00  0.00    -0.287 OA
ENDBRANCH   1   7
TORSDOF 3
REMARK  Name = ../refined-set-2016/2avq/2avq_pocket.pdb
REMARK  236 active torsions:
REMARK  status: ('A' for Active; 'I' for Inactive)
REMARK    1  A    between atoms: _1  and  _3
REMARK    2  A    between atoms: _3  and  _4
REMARK    3  A    between atoms: _3  and  _6
REMARK    4  A    between atoms: _6  and  _7
REMARK    5  A    between atoms: _7  and  _8
REMARK    6  A    between atoms: _8  and  _9
REMARK    7  A    between atoms: _18  and  _20
REMARK    8  A    between atoms: _20  and  _21
REMARK    9  A    between atoms: _20  and  _23
REMARK   10  A    between atoms: _23  and  _24
REMARK   11  A    between atoms: _27  and  _29
REMARK   12  A    between atoms: _29  and  _30
REMARK   13  A    between atoms: _29  and  _32
REMARK   14  A    between atoms: _32  and  _33
REMARK   15  A    between atoms: _36  and  _38
REMARK   16  A    between atoms: _38  and  _39
REMARK   17  A    between atoms: _38  and  _41
REMARK   18  A    between atoms: _41  and  _42
REMARK   19  A    between atoms: _45  and  _47
REMARK   20  A    between atoms: _47  and  _48
REMARK   21  A    between atoms: _47  and  _50
REMARK   22  A    between atoms: _50  and  _51
REMARK   23  A    between atoms: _54  and  _56
REMARK   24  A    between atoms: _56  and  _57
REMARK   25  A    between atoms: _56  and  _59
REMARK   26  A    between atoms: _59  and  _60
REMARK   27  A    between atoms: _63  and  _65
REMARK   28  A    between atoms: _65  and  _66
REMARK   29  A    between atoms: _68  and  _70
REMARK   30  A    between atoms: _70  and  _71
REMARK   31  A    between atoms: _74  and  _76
REMARK   32  A    between atoms: _76  and  _77
REMARK   33  A    between atoms: _76  and  _79
REMARK   34  A    between atoms: _79  and  _80
REMARK   35  A    between atoms: _83  and  _85
REMARK   36  A    between atoms: _85  and  _86
REMARK   37  A    between atoms: _85  and  _88
REMARK   38  A    between atoms: _88  and  _89
REMARK   39  A    between atoms: _92  and  _94
REMARK   40  A    between atoms: _94  and  _95
REMARK   41  A    between atoms: _94  and  _97
REMARK   42  A    between atoms: _97  and  _98
REMARK   43  A    between atoms: _101  and  _103
REMARK   44  A    between atoms: _103  and  _104
REMARK   45  A    between atoms: _103  and  _106
REMARK   46  A    between atoms: _109  and  _111
REMARK   47  A    between atoms: _111  and  _112
REMARK   48  A    between atoms: _111  and  _114
REMARK   49  A    between atoms: _114  and  _115
REMARK   50  A    between atoms: _115  and  _116
REMARK   51  A    between atoms: _116  and  _117
REMARK   52  A    between atoms: _117  and  _118
REMARK   53  A    between atoms: _122  and  _124
REMARK   54  A    between atoms: _124  and  _125
REMARK   55  A    between atoms: _124  and  _127
REMARK   56  A    between atoms: _127  and  _128
REMARK   57  A    between atoms: _128  and  _129
REMARK   58  A    between atoms: _131  and  _133
REMARK   59  A    between atoms: _133  and  _134
REMARK   60  A    between atoms: _133  and  _136
REMARK   61  A    between atoms: _136  and  _137
REMARK   62  A    between atoms: _140  and  _142
REMARK   63  A    between atoms: _142  and  _143
REMARK   64  A    between atoms: _145  and  _147
REMARK   65  A    between atoms: _147  and  _148
REMARK   66  A    between atoms: _150  and  _152
REMARK   67  A    between atoms: _152  and  _153
REMARK   68  A    between atoms: _152  and  _155
REMARK   69  A    between atoms: _158  and  _160
REMARK   70  A    between atoms: _160  and  _161
REMARK   71  A    between atoms: _163  and  _165
REMARK   72  A    between atoms: _165  and  _166
REMARK   73  A    between atoms: _168  and  _170
REMARK   74  A    between atoms: _170  and  _171
REMARK   75  A    between atoms: _170  and  _173
REMARK   76  A    between atoms: _173  and  _174
REMARK   77  A    between atoms: _180  and  _182
REMARK   78  A    between atoms: _182  and  _183
REMARK   79  A    between atoms: _182  and  _185
REMARK   80  A    between atoms: _185  and  _186
REMARK   81  A    between atoms: _189  and  _191
REMARK   82  A    between atoms: _191  and  _192
REMARK   83  A    between atoms: _191  and  _194
REMARK   84  A    between atoms: _197  and  _199
REMARK   85  A    between atoms: _199  and  _200
REMARK   86  A    between atoms: _199  and  _202
REMARK   87  A    between atoms: _202  and  _203
REMARK   88  A    between atoms: _206  and  _208
REMARK   89  A    between atoms: _208  and  _209
REMARK   90  A    between atoms: _208  and  _211
REMARK   91  A    between atoms: _211  and  _212
REMARK   92  A    between atoms: _216  and  _217
REMARK   93  A    between atoms: _222  and  _224
REMARK   94  A    between atoms: _224  and  _225
REMARK   95  A    between atoms: _224  and  _227
REMARK   96  A    between atoms: _230  and  _232
REMARK   97  A    between atoms: _232  and  _233
REMARK   98  A    between atoms: _232  and  _235
REMARK   99  A    between atoms: _235  and  _236
REMARK  100  A    between atoms: _241  and  _243
REMARK  101  A    between atoms: _243  and  _244
REMARK  102  A    between atoms: _243  and  _246
REMARK  103  A    between atoms: _246  and  _247
REMARK  104  A    between atoms: _250  and  _252
REMARK  105  A    between atoms: _252  and  _253
REMARK  106  A    between atoms: _252  and  _255
REMARK  107  A    between atoms: _255  and  _256
REMARK  108  A    between atoms: _259  and  _261
REMARK  109  A    between atoms: _261  and  _262
REMARK  110  A    between atoms: _264  and  _266
REMARK  111  A    between atoms: _266  and  _267
REMARK  112  A    between atoms: _266  and  _269
REMARK  113  A    between atoms: _269  and  _270
REMARK  114  A    between atoms: _270  and  _271
REMARK  115  A    between atoms: _271  and  _272
REMARK  116  A    between atoms: _281  and  _283
REMARK  117  A    between atoms: _283  and  _284
REMARK  118  A    between atoms: _283  and  _286
REMARK  119  A    between atoms: _286  and  _287
REMARK  120  A    between atoms: _292  and  _294
REMARK  121  A    between atoms: _294  and  _295
REMARK  122  A    between atoms: _294  and  _297
REMARK  123  A    between atoms: _297  and  _298
REMARK  124  A    between atoms: _298  and  _299
REMARK  125  A    between atoms: _299  and  _300
REMARK  126  A    between atoms: _302  and  _303
REMARK  127  A    between atoms: _309  and  _311
REMARK  128  A    between atoms: _311  and  _312
REMARK  129  A    between atoms: _311  and  _314
REMARK  130  A    between atoms: _314  and  _315
REMARK  131  A    between atoms: _318  and  _320
REMARK  132  A    between atoms: _320  and  _321
REMARK  133  A    between atoms: _320  and  _323
REMARK  134  A    between atoms: _323  and  _324
REMARK  135  A    between atoms: _327  and  _329
REMARK  136  A    between atoms: _329  and  _330
REMARK  137  A    between atoms: _329  and  _332
REMARK  138  A    between atoms: _332  and  _333
REMARK  139  A    between atoms: _336  and  _338
REMARK  140  A    between atoms: _338  and  _339
REMARK  141  A    between atoms: _338  and  _341
REMARK  142  A    between atoms: _341  and  _342
REMARK  143  A    between atoms: _345  and  _347
REMARK  144  A    between atoms: _347  and  _348
REMARK  145  A    between atoms: _350  and  _352
REMARK  146  A    between atoms: _352  and  _353
REMARK  147  A    between atoms: _356  and  _358
REMARK  148  A    between atoms: _358  and  _359
REMARK  149  A    between atoms: _358  and  _361
REMARK  150  A    between atoms: _361  and  _362
REMARK  151  A    between atoms: _365  and  _367
REMARK  152  A    between atoms: _367  and  _368
REMARK  153  A    between atoms: _367  and  _370
REMARK  154  A    between atoms: _370  and  _371
REMARK  155  A    between atoms: _374  and  _376
REMARK  156  A    between atoms: _376  and  _377
REMARK  157  A    between atoms: _376  and  _379
REMARK  158  A    between atoms: _379  and  _380
REMARK  159  A    between atoms: _383  and  _385
REMARK  160  A    between atoms: _385  and  _386
REMARK  161  A    between atoms: _385  and  _388
REMARK  162  A    between atoms: _391  and  _393
REMARK  163  A    between atoms: _393  and  _394
REMARK  164  A    between atoms: _393  and  _396
REMARK  165  A    between atoms: _396  and  _397
REMARK  166  A    between atoms: _397  and  _398
REMARK  167  A    between atoms: _398  and  _399
REMARK  168  A    between atoms: _399  and  _400
REMARK  169  A    between atoms: _404  and  _406
REMARK  170  A    between atoms: _406  and  _407
REMARK  171  A    between atoms: _406  and  _409
REMARK  172  A    between atoms: _409  and  _410
REMARK  173  A    between atoms: _410  and  _411
REMARK  174  A    between atoms: _413  and  _415
REMARK  175  A    between atoms: _415  and  _416
REMARK  176  A    between atoms: _415  and  _418
REMARK  177  A    between atoms: _418  and  _419
REMARK  178  A    between atoms: _422  and  _424
REMARK  179  A    between atoms: _424  and  _425
REMARK  180  A    between atoms: _427  and  _429
REMARK  181  A    between atoms: _429  and  _430
REMARK  182  A    between atoms: _432  and  _434
REMARK  183  A    between atoms: _434  and  _435
REMARK  184  A    between atoms: _434  and  _437
REMARK  185  A    between atoms: _440  and  _442
REMARK  186  A    between atoms: _442  and  _443
REMARK  187  A    between atoms: _445  and  _447
REMARK  188  A    between atoms: _447  and  _448
REMARK  189  A    between atoms: _450  and  _452
REMARK  190  A    between atoms: _452  and  _453
REMARK  191  A    between atoms: _452  and  _455
REMARK  192  A    between atoms: _455  and  _456
REMARK  193  A    between atoms: _462  and  _464
REMARK  194  A    between atoms: _464  and  _465
REMARK  195  A    between atoms: _464  and  _467
REMARK  196  A    between atoms: _467  and  _468
REMARK  197  A    between atoms: _471  and  _473
REMARK  198  A    between atoms: _473  and  _474
REMARK  199  A    between atoms: _473  and  _476
REMARK  200  A    between atoms: _479  and  _481
REMARK  201  A    between atoms: _481  and  _482
REMARK  202  A    between atoms: _481  and  _484
REMARK  203  A    between atoms: _484  and  _485
REMARK  204  A    between atoms: _489  and  _490
REMARK  205  A    between atoms: _495  and  _497
REMARK  206  A    between atoms: _497  and  _498
REMARK  207  A    between atoms: _497  and  _500
REMARK  208  A    between atoms: _500  and  _501
REMARK  209  A    between atoms: _505  and  _506
REMARK  210  A    between atoms: _511  and  _513
REMARK  211  A    between atoms: _513  and  _514
REMARK  212  A    between atoms: _513  and  _516
REMARK  213  A    between atoms: _519  and  _521
REMARK  214  A    between atoms: _521  and  _522
REMARK  215  A    between atoms: _521  and  _524
REMARK  216  A    between atoms: _524  and  _525
REMARK  217  A    between atoms: _530  and  _532
REMARK  218  A    between atoms: _532  and  _533
REMARK  219  A    between atoms: _532  and  _535
REMARK  220  A    between atoms: _535  and  _536
REMARK  221  A    between atoms: _539  and  _541
REMARK  222  A    between atoms: _541  and  _542
REMARK  223  A    between atoms: _541  and  _544
REMARK  224  A    between atoms: _544  and  _545
REMARK  225  A    between atoms: _548  and  _550
REMARK  226  A    between atoms: _550  and  _551
REMARK  227  A    between atoms: _553  and  _555
REMARK  228  A    between atoms: _555  and  _556
REMARK  229  A    between atoms: _555  and  _558
REMARK  230  A    between atoms: _558  and  _559
REMARK  231  A    between atoms: _559  and  _560
REMARK  232  A    between atoms: _560  and  _561
REMARK  233  A    between atoms: _570  and  _572
REMARK  234  A    between atoms: _572  and  _573
REMARK  235  A    between atoms: _572  and  _575
REMARK  236  A    between atoms: _575  and  _576
REMARK                            x       y       z     vdW  Elec       q    Type
REMARK                         _______ _______ _______ _____ _____    ______ ____
ROOT
ATOM      1  CA  LEU A   1      13.043  13.380  27.946  0.00  0.00    +0.133 C 
ENDROOT
BRANCH   1   2
ATOM      2  N   LEU A   1      12.246  14.280  28.746  0.00  0.00    -0.239 NA
ATOM      3  H   LEU A   1      12.186  15.277  28.458  0.00  0.00    +0.142 HD
ENDBRANCH   1   2
BRANCH   1   4
ATOM      4  C   LEU A   1      14.502  13.529  28.336  0.00  0.00    +0.224 C 
ATOM      5  O   LEU A   1      14.959  14.676  28.496  0.00  0.00    -0.287 OA
ENDBRANCH   1   4
BRANCH   1   6
ATOM      6  CB  LEU A   1      12.858  13.667  26.448  0.00  0.00    +0.025 C 
BRANCH   6   7
ATOM      7  CG  LEU A   1      11.407  13.751  25.971  0.00  0.00    +0.002 C 
ATOM      8  CD2 LEU A   1      10.611  12.505  26.306  0.00  0.00    +0.000 C 
ATOM      9  CD1 LEU A   1      11.365  14.021  24.481  0.00  0.00    +0.000 C 
ENDBRANCH   6   7
ENDBRANCH   1   6
TORSDOF 4
REMARK  Name = ../refined-set-2016/2avq/2avq_pocket.pdb
REMARK  236 active torsions:
REMARK  status: ('A' for Active; 'I' for Inactive)
REMARK    1  A    between atoms: _1  and  _3
REMARK    2  A    between atoms: _3  and  _4
REMARK    3  A    between atoms: _3  and  _6
REMARK    4  A    between atoms: _6  and  _7
REMARK    5  A    between atoms: _7  and  _8
REMARK    6  A    between atoms: _8  and  _9
REMARK    7  A    between atoms: _18  and  _20
REMARK    8  A    between atoms: _20  and  _21
REMARK    9  A    between atoms: _20  and  _23
REMARK   10  A    between atoms: _23  and  _24
REMARK   11  A    between atoms: _27  and  _29
REMARK   12  A    between atoms: _29  and  _30
REMARK   13  A    between atoms: _29  and  _32
REMARK   14  A    between atoms: _32  and  _33
REMARK   15  A    between atoms: _36  and  _38
REMARK   16  A    between atoms: _38  and  _39
REMARK   17  A    between atoms: _38  and  _41
REMARK   18  A    between atoms: _41  and  _42
REMARK   19  A    between atoms: _45  and  _47
REMARK   20  A    between atoms: _47  and  _48
REMARK   21  A    between atoms: _47  and  _50
REMARK   22  A    between atoms: _50  and  _51
REMARK   23  A    between atoms: _54  and  _56
REMARK   24  A    between atoms: _56  and  _57
REMARK   25  A    between atoms: _56  and  _59
REMARK   26  A    between atoms: _59  and  _60
REMARK   27  A    between atoms: _63  and  _65
REMARK   28  A    between atoms: _65  and  _66
REMARK   29  A    between atoms: _68  and  _70
REMARK   30  A    between atoms: _70  and  _71
REMARK   31  A    between atoms: _74  and  _76
REMARK   32  A    between atoms: _76  and  _77
REMARK   33  A    between atoms: _76  and  _79
REMARK   34  A    between atoms: _79  and  _80
REMARK   35  A    between atoms: _83  and  _85
REMARK   36  A    between atoms: _85  and  _86
REMARK   37  A    between atoms: _85  and  _88
REMARK   38  A    between atoms: _88  and  _89
REMARK   39  A    between atoms: _92  and  _94
REMARK   40  A    between atoms: _94  and  _95
REMARK   41  A    between atoms: _94  and  _97
REMARK   42  A    between atoms: _97  and  _98
REMARK   43  A    between atoms: _101  and  _103
REMARK   44  A    between atoms: _103  and  _104
REMARK   45  A    between atoms: _103  and  _106
REMARK   46  A    between atoms: _109  and  _111
REMARK   47  A    between atoms: _111  and  _112
REMARK   48  A    between atoms: _111  and  _114
REMARK   49  A    between atoms: _114  and  _115
REMARK   50  A    between atoms: _115  and  _116
REMARK   51  A    between atoms: _116  and  _117
REMARK   52  A    between atoms: _117  and  _118
REMARK   53  A    between atoms: _122  and  _124
REMARK   54  A    between atoms: _124  and  _125
REMARK   55  A    between atoms: _124  and  _127
REMARK   56  A    between atoms: _127  and  _128
REMARK   57  A    between atoms: _128  and  _129
REMARK   58  A    between atoms: _131  and  _133
REMARK   59  A    between atoms: _133  and  _134
REMARK   60  A    between atoms: _133  and  _136
REMARK   61  A    between atoms: _136  and  _137
REMARK   62  A    between atoms: _140  and  _142
REMARK   63  A    between atoms: _142  and  _143
REMARK   64  A    between atoms: _145  and  _147
REMARK   65  A    between atoms: _147  and  _148
REMARK   66  A    between atoms: _150  and  _152
REMARK   67  A    between atoms: _152  and  _153
REMARK   68  A    between atoms: _152  and  _155
REMARK   69  A    between atoms: _158  and  _160
REMARK   70  A    between atoms: _160  and  _161
REMARK   71  A    between atoms: _163  and  _165
REMARK   72  A    between atoms: _165  and  _166
REMARK   73  A    between atoms: _168  and  _170
REMARK   74  A    between atoms: _170  and  _171
REMARK   75  A    between atoms: _170  and  _173
REMARK   76  A    between atoms: _173  and  _174
REMARK   77  A    between atoms: _180  and  _182
REMARK   78  A    between atoms: _182  and  _183
REMARK   79  A    between atoms: _182  and  _185
REMARK   80  A    between atoms: _185  and  _186
REMARK   81  A    between atoms: _189  and  _191
REMARK   82  A    between atoms: _191  and  _192
REMARK   83  A    between atoms: _191  and  _194
REMARK   84  A    between atoms: _197  and  _199
REMARK   85  A    between atoms: _199  and  _200
REMARK   86  A    between atoms: _199  and  _202
REMARK   87  A    between atoms: _202  and  _203
REMARK   88  A    between atoms: _206  and  _208
REMARK   89  A    between atoms: _208  and  _209
REMARK   90  A    between atoms: _208  and  _211
REMARK   91  A    between atoms: _211  and  _212
REMARK   92  A    between atoms: _216  and  _217
REMARK   93  A    between atoms: _222  and  _224
REMARK   94  A    between atoms: _224  and  _225
REMARK   95  A    between atoms: _224  and  _227
REMARK   96  A    between atoms: _230  and  _232
REMARK   97  A    between atoms: _232  and  _233
REMARK   98  A    between atoms: _232  and  _235
REMARK   99  A    between atoms: _235  and  _236
REMARK  100  A    between atoms: _241  and  _243
REMARK  101  A    between atoms: _243  and  _244
REMARK  102  A    between atoms: _243  and  _246
REMARK  103  A    between atoms: _246  and  _247
REMARK  104  A    between atoms: _250  and  _252
REMARK  105  A    between atoms: _252  and  _253
REMARK  106  A    between atoms: _252  and  _255
REMARK  107  A    between atoms: _255  and  _256
REMARK  108  A    between atoms: _259  and  _261
REMARK  109  A    between atoms: _261  and  _262
REMARK  110  A    between atoms: _264  and  _266
REMARK  111  A    between atoms: _266  and  _267
REMARK  112  A    between atoms: _266  and  _269
REMARK  113  A    between atoms: _269  and  _270
REMARK  114  A    between atoms: _270  and  _271
REMARK  115  A    between atoms: _271  and  _272
REMARK  116  A    between atoms: _281  and  _283
REMARK  117  A    between atoms: _283  and  _284
REMARK  118  A    between atoms: _283  and  _286
REMARK  119  A    between atoms: _286  and  _287
REMARK  120  A    between atoms: _292  and  _294
REMARK  121  A    between atoms: _294  and  _295
REMARK  122  A    between atoms: _294  and  _297
REMARK  123  A    between atoms: _297  and  _298
REMARK  124  A    between atoms: _298  and  _299
REMARK  125  A    between atoms: _299  and  _300
REMARK  126  A    between atoms: _302  and  _303
REMARK  127  A    between atoms: _309  and  _311
REMARK  128  A    between atoms: _311  and  _312
REMARK  129  A    between atoms: _311  and  _314
REMARK  130  A    between atoms: _314  and  _315
REMARK  131  A    between atoms: _318  and  _320
REMARK  132  A    between atoms: _320  and  _321
REMARK  133  A    between atoms: _320  and  _323
REMARK  134  A    between atoms: _323  and  _324
REMARK  135  A    between atoms: _327  and  _329
REMARK  136  A    between atoms: _329  and  _330
REMARK  137  A    between atoms: _329  and  _332
REMARK  138  A    between atoms: _332  and  _333
REMARK  139  A    between atoms: _336  and  _338
REMARK  140  A    between atoms: _338  and  _339
REMARK  141  A    between atoms: _338  and  _341
REMARK  142  A    between atoms: _341  and  _342
REMARK  143  A    between atoms: _345  and  _347
REMARK  144  A    between atoms: _347  and  _348
REMARK  145  A    between atoms: _350  and  _352
REMARK  146  A    between atoms: _352  and  _353
REMARK  147  A    between atoms: _356  and  _358
REMARK  148  A    between atoms: _358  and  _359
REMARK  149  A    between atoms: _358  and  _361
REMARK  150  A    between atoms: _361  and  _362
REMARK  151  A    between atoms: _365  and  _367
REMARK  152  A    between atoms: _367  and  _368
REMARK  153  A    between atoms: _367  and  _370
REMARK  154  A    between atoms: _370  and  _371
REMARK  155  A    between atoms: _374  and  _376
REMARK  156  A    between atoms: _376  and  _377
REMARK  157  A    between atoms: _376  and  _379
REMARK  158  A    between atoms: _379  and  _380
REMARK  159  A    between atoms: _383  and  _385
REMARK  160  A    between atoms: _385  and  _386
REMARK  161  A    between atoms: _385  and  _388
REMARK  162  A    between atoms: _391  and  _393
REMARK  163  A    between atoms: _393  and  _394
REMARK  164  A    between atoms: _393  and  _396
REMARK  165  A    between atoms: _396  and  _397
REMARK  166  A    between atoms: _397  and  _398
REMARK  167  A    between atoms: _398  and  _399
REMARK  168  A    between atoms: _399  and  _400
REMARK  169  A    between atoms: _404  and  _406
REMARK  170  A    between atoms: _406  and  _407
REMARK  171  A    between atoms: _406  and  _409
REMARK  172  A    between atoms: _409  and  _410
REMARK  173  A    between atoms: _410  and  _411
REMARK  174  A    between atoms: _413  and  _415
REMARK  175  A    between atoms: _415  and  _416
REMARK  176  A    between atoms: _415  and  _418
REMARK  177  A    between atoms: _418  and  _419
REMARK  178  A    between atoms: _422  and  _424
REMARK  179  A    between atoms: _424  and  _425
REMARK  180  A    between atoms: _427  and  _429
REMARK  181  A    between atoms: _429  and  _430
REMARK  182  A    between atoms: _432  and  _434
REMARK  183  A    between atoms: _434  and  _435
REMARK  184  A    between atoms: _434  and  _437
REMARK  185  A    between atoms: _440  and  _442
REMARK  186  A    between atoms: _442  and  _443
REMARK  187  A    between atoms: _445  and  _447
REMARK  188  A    between atoms: _447  and  _448
REMARK  189  A    between atoms: _450  and  _452
REMARK  190  A    between atoms: _452  and  _453
REMARK  191  A    between atoms: _452  and  _455
REMARK  192  A    between atoms: _455  and  _456
REMARK  193  A    between atoms: _462  and  _464
REMARK  194  A    between atoms: _464  and  _465
REMARK  195  A    between atoms: _464  and  _467
REMARK  196  A    between atoms: _467  and  _468
REMARK  197  A    between atoms: _471  and  _473
REMARK  198  A    between atoms: _473  and  _474
REMARK  199  A    between atoms: _473  and  _476
REMARK  200  A    between atoms: _479  and  _481
REMARK  201  A    between atoms: _481  and  _482
REMARK  202  A    between atoms: _481  and  _484
REMARK  203  A    between atoms: _484  and  _485
REMARK  204  A    between atoms: _489  and  _490
REMARK  205  A    between atoms: _495  and  _497
REMARK  206  A    between atoms: _497  and  _498
REMARK  207  A    between atoms: _497  and  _500
REMARK  208  A    between atoms: _500  and  _501
REMARK  209  A    between atoms: _505  and  _506
REMARK  210  A    between atoms: _511  and  _513
REMARK  211  A    between atoms: _513  and  _514
REMARK  212  A    between atoms: _513  and  _516
REMARK  213  A    between atoms: _519  and  _521
REMARK  214  A    between atoms: _521  and  _522
REMARK  215  A    between atoms: _521  and  _524
REMARK  216  A    between atoms: _524  and  _525
REMARK  217  A    between atoms: _530  and  _532
REMARK  218  A    between atoms: _532  and  _533
REMARK  219  A    between atoms: _532  and  _535
REMARK  220  A    between atoms: _535  and  _536
REMARK  221  A    between atoms: _539  and  _541
REMARK  222  A    between atoms: _541  and  _542
REMARK  223  A    between atoms: _541  and  _544
REMARK  224  A    between atoms: _544  and  _545
REMARK  225  A    between atoms: _548  and  _550
REMARK  226  A    between atoms: _550  and  _551
REMARK  227  A    between atoms: _553  and  _555
REMARK  228  A    between atoms: _555  and  _556
REMARK  229  A    between atoms: _555  and  _558
REMARK  230  A    between atoms: _558  and  _559
REMARK  231  A    between atoms: _559  and  _560
REMARK  232  A    between atoms: _560  and  _561
REMARK  233  A    between atoms: _570  and  _572
REMARK  234  A    between atoms: _572  and  _573
REMARK  235  A    between atoms: _572  and  _575
REMARK  236  A    between atoms: _575  and  _576
REMARK                            x       y       z     vdW  Elec       q    Type
REMARK                         _______ _______ _______ _____ _____    ______ ____
ROOT
ATOM      1  CA  ILE A   6      15.678  22.669  26.447  0.00  0.00    +0.149 C 
ENDROOT
BRANCH   1   4
ATOM      2  C   ASN A   5      17.810  22.399  27.519  0.00  0.00    +0.241 C 
ATOM      3  O   ASN A   5      18.080  23.590  27.476  0.00  0.00    -0.273 OA
ATOM      4  N   ILE A   6      16.686  21.845  27.084  0.00  0.00    -0.297 N 
ATOM      5  H   ILE A   6      16.529  20.823  27.200  0.00  0.00    +0.150 HD
BRANCH   2   6
ATOM      6  CA  ASN A   5      18.842  21.454  28.114  0.00  0.00    +0.158 C 
BRANCH   6   8
ATOM      7  C   VAL A   4      20.341  21.333  26.213  0.00  0.00    +0.241 C 
ATOM      8  N   ASN A   5      20.135  21.673  27.477  0.00  0.00    -0.297 N 
ATOM      9  H   ASN A   5      20.908  22.103  28.024  0.00  0.00    +0.150 HD
ATOM     10  O   VAL A   4      19.504  20.749  25.539  0.00  0.00    -0.273 OA
BRANCH   7  11
ATOM     11  CA  VAL A   4      21.679  21.718  25.600  0.00  0.00    +0.149 C 
BRANCH  11  14
ATOM     12  C   PRO A   3      23.262  20.419  24.270  0.00  0.00    +0.241 C 
ATOM     13  O   PRO A   3      24.242  20.932  24.828  0.00  0.00    -0.273 OA
ATOM     14  N   VAL A   4      22.020  20.756  24.560  0.00  0.00    -0.297 N 
ATOM     15  H   VAL A   4      21.248  20.314  24.021  0.00  0.00    +0.150 HD
BRANCH  12  19
ATOM     16  C   THR A   2      22.023  17.636  23.858  0.00  0.00    +0.246 C 
ATOM     17  O   THR A   2      22.685  17.539  24.897  0.00  0.00    -0.273 OA
ATOM     18  N   PRO A   3      22.322  18.551  22.936  0.00  0.00    -0.272 N 
ATOM     19  CA  PRO A   3      23.495  19.404  23.169  0.00  0.00    +0.152 C 
ATOM     20  CB  PRO A   3      23.690  20.107  21.828  0.00  0.00    +0.031 C 
ATOM     21  CG  PRO A   3      22.325  20.123  21.229  0.00  0.00    +0.024 C 
ATOM     22  CD  PRO A   3      21.656  18.844  21.658  0.00  0.00    +0.094 C 
BRANCH  16  23
ATOM     23  CA  THR A   2      20.818  16.760  23.632  0.00  0.00    +0.176 C 
BRANCH  23  25
ATOM     24  C   PRO A   1      21.859  14.570  23.480  0.00  0.00    +0.239 C 
ATOM     25  N   THR A   2      21.059  15.416  24.132  0.00  0.00    -0.295 N 
ATOM     26  H   THR A   2      20.600  15.109  25.013  0.00  0.00    +0.150 HD
ATOM     27  O   PRO A   1      22.290  14.765  22.348  0.00  0.00    -0.274 OA
BRANCH  24  29
ATOM     28  N   PRO A   1      21.090  12.556  24.742  0.00  0.00    -0.210 NA
ATOM     29  CA  PRO A   1      22.234  13.337  24.261  0.00  0.00    +0.149 C 
ATOM     30  CB  PRO A   1      22.971  12.328  23.383  0.00  0.00    +0.028 C 
ATOM     31  CG  PRO A   1      21.885  11.436  22.891  0.00  0.00    +0.021 C 
ATOM     32  CD  PRO A   1      20.892  11.272  23.997  0.00  0.00    +0.089 C 
ENDBRANCH  24  29
ENDBRANCH  23  25
BRANCH  23  33
ATOM     33  CB  THR A   2      19.570  17.354  24.300  0.00  0.00    +0.137 C 
ATOM     34  CG2 THR A   2      19.701  17.453  25.824  0.00  0.00    +0.034 C 
BRANCH  33  35
ATOM     35  OG1 THR A   2      19.373  18.645  23.746  0.00  0.00    -0.382 OA
ATOM     36  HG1 THR A   2      20.168  19.206  23.929  0.00  0.00    +0.210 HD
ENDBRANCH  33  35
ENDBRANCH  23  33
ENDBRANCH  16  23
ENDBRANCH  12  19
ENDBRANCH  11  14
BRANCH  11  37
ATOM     37  CB  VAL A   4      21.661  23.179  25.114  0.00  0.00    +0.027 C 
ATOM     38  CG2 VAL A   4      20.392  23.987  25.395  0.00  0.00    +0.002 C 
ATOM     39  CG1 VAL A   4      21.934  23.355  23.622  0.00  0.00    +0.002 C 
ENDBRANCH  11  37
ENDBRANCH   7  11
ENDBRANCH   6   8
BRANCH   6  40
ATOM     40  CB  ASN A   5      18.932  21.705  29.615  0.00  0.00    +0.114 C 
BRANCH  40  41
ATOM     41  CG  ASN A   5      19.846  20.761  30.349  0.00  0.00    +0.222 C 
ATOM     42  ND2 ASN A   5      20.378  21.249  31.450  0.00  0.00    -0.329 N 
ATOM     43 HD21 ASN A   5      21.000  20.655  32.034  0.00  0.00    +0.145 HD
ATOM     44 HD22 ASN A   5      20.176  22.229  31.735  0.00  0.00    +0.145 HD
ATOM     45  OD1 ASN A   5      20.048  19.621  29.967  0.00  0.00    -0.275 OA
ENDBRANCH  40  41
ENDBRANCH   6  40
ENDBRANCH   2   6
ENDBRANCH   1   4
BRANCH   1  46
ATOM     46  C   ILE A   6      14.324  22.436  27.125  0.00  0.00    +0.241 C 
ATOM     47  O   ILE A   6      13.919  21.299  27.401  0.00  0.00    -0.273 OA
ATOM     48  N   ILE A   7      13.619  23.508  27.388  0.00  0.00    -0.297 N 
ATOM     49  H   ILE A   7      14.071  24.432  27.235  0.00  0.00    +0.150 HD
BRANCH  48  50
ATOM     50  CA  ILE A   7      12.248  23.499  27.879  0.00  0.00    +0.149 C 
BRANCH  50  51
ATOM     51  C   ILE A   7      11.335  23.748  26.688  0.00  0.00    +0.241 C 
ATOM     52  N   GLY A   8      10.562  22.744  26.315  0.00  0.00    -0.295 N 
ATOM     53  H   GLY A   8      10.588  21.859  26.861  0.00  0.00    +0.150 HD
ATOM     54  O   ILE A   7      11.351  24.847  26.119  0.00  0.00    -0.273 OA
BRANCH  52  55
ATOM     55  CA  GLY A   8       9.683  22.836  25.175  0.00  0.00    +0.176 C 
BRANCH  55  56
ATOM     56  C   GLY A   8       8.263  23.122  25.513  0.00  0.00    +0.243 C 
ATOM     57  O   GLY A   8       7.907  23.387  26.653  0.00  0.00    -0.273 OA
ATOM     58  N   ARG A   9       7.428  23.053  24.459  0.00  0.00    -0.297 N 
ATOM     59  H   ARG A   9       7.754  22.658  23.554  0.00  0.00    +0.150 HD
BRANCH  58  60
ATOM     60  CA  ARG A   9       6.067  23.537  24.603  0.00  0.00    +0.149 C 
BRANCH  60  61
ATOM     61  C   ARG A   9       5.252  22.780  25.612  0.00  0.00    +0.241 C 
ATOM     62  O   ARG A   9       4.338  23.346  26.209  0.00  0.00    -0.273 OA
ATOM     63  N   ASN A  10       5.537  21.502  25.817  0.00  0.00    -0.298 N 
ATOM     64  H   ASN A  10       6.314  21.053  25.292  0.00  0.00    +0.150 HD
BRANCH  63  65
ATOM     65  CA  ASN A  10       4.770  20.732  26.769  0.00  0.00    +0.146 C 
BRANCH  65  66
ATOM     66  C   ASN A  10       4.819  21.399  28.161  0.00  0.00    +0.227 C 
ATOM     67  O   ASN A  10       3.832  21.323  28.896  0.00  0.00    -0.286 OA
ENDBRANCH  65  66
BRANCH  65  68
ATOM     68  CB  ASN A  10       5.239  19.288  26.880  0.00  0.00    +0.112 C 
BRANCH  68  69
ATOM     69  CG  ASN A  10       6.559  19.049  27.550  0.00  0.00    +0.222 C 
ATOM     70  ND2 ASN A  10       6.570  18.194  28.540  0.00  0.00    -0.329 N 
ATOM     71 HD21 ASN A  10       7.457  17.996  29.046  0.00  0.00    +0.145 HD
ATOM     72 HD22 ASN A  10       5.692  17.712  28.821  0.00  0.00    +0.145 HD
ATOM     73  OD1 ASN A  10       7.545  19.663  27.151  0.00  0.00    -0.275 OA
ENDBRANCH  68  69
ENDBRANCH  65  68
ENDBRANCH  63  65
ENDBRANCH  60  61
BRANCH  60  74
ATOM     74  CB  ARG A   9       5.364  23.550  23.239  0.00  0.00    +0.033 C 
BRANCH  74  75
ATOM     75  CG  ARG A   9       5.982  24.548  22.278  0.00  0.00    +0.045 C 
BRANCH  75  76
ATOM     76  CD  ARG A   9       5.241  24.709  20.957  0.00  0.00    +0.174 C 
BRANCH  76  77
ATOM     77  NE  ARG A   9       5.222  23.451  20.214  0.00  0.00    -0.265 N 
ATOM     78  CZ  ARG A   9       4.278  22.548  20.243  0.00  0.00    +0.342 C 
ATOM     79  NH2 ARG A   9       3.139  22.731  20.901  0.00  0.00    -0.292 N 
ATOM     80 HH21 ARG A   9       2.974  23.618  21.418  0.00  0.00    +0.255 HD
ATOM     81 HH22 ARG A   9       2.412  21.987  20.899  0.00  0.00    +0.255 HD
ATOM     82  NH1 ARG A   9       4.440  21.398  19.566  0.00  0.00    -0.292 N 
ATOM     83 HH11 ARG A   9       3.693  20.674  19.584  0.00  0.00    +0.255 HD
ATOM     84 HH12 ARG A   9       5.312  21.232  19.024  0.00  0.00    +0.255 HD
ATOM     85  HE  ARG A   9       6.040  23.255  19.602  0.00  0.00    +0.259 HD
ENDBRANCH  76  77
ENDBRANCH  75  76
ENDBRANCH  74  75
ENDBRANCH  60  74
ENDBRANCH  58  60
ENDBRANCH  55  56
ENDBRANCH  52  55
ENDBRANCH  50  51
BRANCH  50  86
ATOM     86  CB  ILE A   7      12.026  24.541  28.975  0.00  0.00    +0.027 C 
ATOM     87  CG2 ILE A   7      10.601  24.438  29.481  0.00  0.00    +0.002 C 
BRANCH  86  88
ATOM     88  CG1 ILE A   7      13.082  24.450  30.079  0.00  0.00    +0.002 C 
ATOM     89  CD1 ILE A   7      13.199  23.070  30.692  0.00  0.00    +0.000 C 
ENDBRANCH  86  88
ENDBRANCH  50  86
ENDBRANCH  48  50
ENDBRANCH   1  46
BRANCH   1  90
ATOM     90  CB  ILE A   6      15.575  22.492  24.930  0.00  0.00    +0.027 C 
ATOM     91  CG2 ILE A   6      16.874  22.923  24.262  0.00  0.00    +0.002 C 
BRANCH  90  92
ATOM     92  CG1 ILE A   6      15.186  21.118  24.491  0.00  0.00    +0.002 C 
ATOM     93  CD1 ILE A   6      15.233  20.917  22.982  0.00  0.00    +0.000 C 
ENDBRANCH  90  92
ENDBRANCH   1  90
TORSDOF 33
REMARK  Name = ../refined-set-2016/2avq/2avq_pocket.pdb
REMARK  236 active torsions:
REMARK  status: ('A' for Active; 'I' for Inactive)
REMARK    1  A    between atoms: _1  and  _3
REMARK    2  A    between atoms: _3  and  _4
REMARK    3  A    between atoms: _3  and  _6
REMARK    4  A    between atoms: _6  and  _7
REMARK    5  A    between atoms: _7  and  _8
REMARK    6  A    between atoms: _8  and  _9
REMARK    7  A    between atoms: _18  and  _20
REMARK    8  A    between atoms: _20  and  _21
REMARK    9  A    between atoms: _20  and  _23
REMARK   10  A    between atoms: _23  and  _24
REMARK   11  A    between atoms: _27  and  _29
REMARK   12  A    between atoms: _29  and  _30
REMARK   13  A    between atoms: _29  and  _32
REMARK   14  A    between atoms: _32  and  _33
REMARK   15  A    between atoms: _36  and  _38
REMARK   16  A    between atoms: _38  and  _39
REMARK   17  A    between atoms: _38  and  _41
REMARK   18  A    between atoms: _41  and  _42
REMARK   19  A    between atoms: _45  and  _47
REMARK   20  A    between atoms: _47  and  _48
REMARK   21  A    between atoms: _47  and  _50
REMARK   22  A    between atoms: _50  and  _51
REMARK   23  A    between atoms: _54  and  _56
REMARK   24  A    between atoms: _56  and  _57
REMARK   25  A    between atoms: _56  and  _59
REMARK   26  A    between atoms: _59  and  _60
REMARK   27  A    between atoms: _63  and  _65
REMARK   28  A    between atoms: _65  and  _66
REMARK   29  A    between atoms: _68  and  _70
REMARK   30  A    between atoms: _70  and  _71
REMARK   31  A    between atoms: _74  and  _76
REMARK   32  A    between atoms: _76  and  _77
REMARK   33  A    between atoms: _76  and  _79
REMARK   34  A    between atoms: _79  and  _80
REMARK   35  A    between atoms: _83  and  _85
REMARK   36  A    between atoms: _85  and  _86
REMARK   37  A    between atoms: _85  and  _88
REMARK   38  A    between atoms: _88  and  _89
REMARK   39  A    between atoms: _92  and  _94
REMARK   40  A    between atoms: _94  and  _95
REMARK   41  A    between atoms: _94  and  _97
REMARK   42  A    between atoms: _97  and  _98
REMARK   43  A    between atoms: _101  and  _103
REMARK   44  A    between atoms: _103  and  _104
REMARK   45  A    between atoms: _103  and  _106
REMARK   46  A    between atoms: _109  and  _111
REMARK   47  A    between atoms: _111  and  _112
REMARK   48  A    between atoms: _111  and  _114
REMARK   49  A    between atoms: _114  and  _115
REMARK   50  A    between atoms: _115  and  _116
REMARK   51  A    between atoms: _116  and  _117
REMARK   52  A    between atoms: _117  and  _118
REMARK   53  A    between atoms: _122  and  _124
REMARK   54  A    between atoms: _124  and  _125
REMARK   55  A    between atoms: _124  and  _127
REMARK   56  A    between atoms: _127  and  _128
REMARK   57  A    between atoms: _128  and  _129
REMARK   58  A    between atoms: _131  and  _133
REMARK   59  A    between atoms: _133  and  _134
REMARK   60  A    between atoms: _133  and  _136
REMARK   61  A    between atoms: _136  and  _137
REMARK   62  A    between atoms: _140  and  _142
REMARK   63  A    between atoms: _142  and  _143
REMARK   64  A    between atoms: _145  and  _147
REMARK   65  A    between atoms: _147  and  _148
REMARK   66  A    between atoms: _150  and  _152
REMARK   67  A    between atoms: _152  and  _153
REMARK   68  A    between atoms: _152  and  _155
REMARK   69  A    between atoms: _158  and  _160
REMARK   70  A    between atoms: _160  and  _161
REMARK   71  A    between atoms: _163  and  _165
REMARK   72  A    between atoms: _165  and  _166
REMARK   73  A    between atoms: _168  and  _170
REMARK   74  A    between atoms: _170  and  _171
REMARK   75  A    between atoms: _170  and  _173
REMARK   76  A    between atoms: _173  and  _174
REMARK   77  A    between atoms: _180  and  _182
REMARK   78  A    between atoms: _182  and  _183
REMARK   79  A    between atoms: _182  and  _185
REMARK   80  A    between atoms: _185  and  _186
REMARK   81  A    between atoms: _189  and  _191
REMARK   82  A    between atoms: _191  and  _192
REMARK   83  A    between atoms: _191  and  _194
REMARK   84  A    between atoms: _197  and  _199
REMARK   85  A    between atoms: _199  and  _200
REMARK   86  A    between atoms: _199  and  _202
REMARK   87  A    between atoms: _202  and  _203
REMARK   88  A    between atoms: _206  and  _208
REMARK   89  A    between atoms: _208  and  _209
REMARK   90  A    between atoms: _208  and  _211
REMARK   91  A    between atoms: _211  and  _212
REMARK   92  A    between atoms: _216  and  _217
REMARK   93  A    between atoms: _222  and  _224
REMARK   94  A    between atoms: _224  and  _225
REMARK   95  A    between atoms: _224  and  _227
REMARK   96  A    between atoms: _230  and  _232
REMARK   97  A    between atoms: _232  and  _233
REMARK   98  A    between atoms: _232  and  _235
REMARK   99  A    between atoms: _235  and  _236
REMARK  100  A    between atoms: _241  and  _243
REMARK  101  A    between atoms: _243  and  _244
REMARK  102  A    between atoms: _243  and  _246
REMARK  103  A    between atoms: _246  and  _247
REMARK  104  A    between atoms: _250  and  _252
REMARK  105  A    between atoms: _252  and  _253
REMARK  106  A    between atoms: _252  and  _255
REMARK  107  A    between atoms: _255  and  _256
REMARK  108  A    between atoms: _259  and  _261
REMARK  109  A    between atoms: _261  and  _262
REMARK  110  A    between atoms: _264  and  _266
REMARK  111  A    between atoms: _266  and  _267
REMARK  112  A    between atoms: _266  and  _269
REMARK  113  A    between atoms: _269  and  _270
REMARK  114  A    between atoms: _270  and  _271
REMARK  115  A    between atoms: _271  and  _272
REMARK  116  A    between atoms: _281  and  _283
REMARK  117  A    between atoms: _283  and  _284
REMARK  118  A    between atoms: _283  and  _286
REMARK  119  A    between atoms: _286  and  _287
REMARK  120  A    between atoms: _292  and  _294
REMARK  121  A    between atoms: _294  and  _295
REMARK  122  A    between atoms: _294  and  _297
REMARK  123  A    between atoms: _297  and  _298
REMARK  124  A    between atoms: _298  and  _299
REMARK  125  A    between atoms: _299  and  _300
REMARK  126  A    between atoms: _302  and  _303
REMARK  127  A    between atoms: _309  and  _311
REMARK  128  A    between atoms: _311  and  _312
REMARK  129  A    between atoms: _311  and  _314
REMARK  130  A    between atoms: _314  and  _315
REMARK  131  A    between atoms: _318  and  _320
REMARK  132  A    between atoms: _320  and  _321
REMARK  133  A    between atoms: _320  and  _323
REMARK  134  A    between atoms: _323  and  _324
REMARK  135  A    between atoms: _327  and  _329
REMARK  136  A    between atoms: _329  and  _330
REMARK  137  A    between atoms: _329  and  _332
REMARK  138  A    between atoms: _332  and  _333
REMARK  139  A    between atoms: _336  and  _338
REMARK  140  A    between atoms: _338  and  _339
REMARK  141  A    between atoms: _338  and  _341
REMARK  142  A    between atoms: _341  and  _342
REMARK  143  A    between atoms: _345  and  _347
REMARK  144  A    between atoms: _347  and  _348
REMARK  145  A    between atoms: _350  and  _352
REMARK  146  A    between atoms: _352  and  _353
REMARK  147  A    between atoms: _356  and  _358
REMARK  148  A    between atoms: _358  and  _359
REMARK  149  A    between atoms: _358  and  _361
REMARK  150  A    between atoms: _361  and  _362
REMARK  151  A    between atoms: _365  and  _367
REMARK  152  A    between atoms: _367  and  _368
REMARK  153  A    between atoms: _367  and  _370
REMARK  154  A    between atoms: _370  and  _371
REMARK  155  A    between atoms: _374  and  _376
REMARK  156  A    between atoms: _376  and  _377
REMARK  157  A    between atoms: _376  and  _379
REMARK  158  A    between atoms: _379  and  _380
REMARK  159  A    between atoms: _383  and  _385
REMARK  160  A    between atoms: _385  and  _386
REMARK  161  A    between atoms: _385  and  _388
REMARK  162  A    between atoms: _391  and  _393
REMARK  163  A    between atoms: _393  and  _394
REMARK  164  A    between atoms: _393  and  _396
REMARK  165  A    between atoms: _396  and  _397
REMARK  166  A    between atoms: _397  and  _398
REMARK  167  A    between atoms: _398  and  _399
REMARK  168  A    between atoms: _399  and  _400
REMARK  169  A    between atoms: _404  and  _406
REMARK  170  A    between atoms: _406  and  _407
REMARK  171  A    between atoms: _406  and  _409
REMARK  172  A    between atoms: _409  and  _410
REMARK  173  A    between atoms: _410  and  _411
REMARK  174  A    between atoms: _413  and  _415
REMARK  175  A    between atoms: _415  and  _416
REMARK  176  A    between atoms: _415  and  _418
REMARK  177  A    between atoms: _418  and  _419
REMARK  178  A    between atoms: _422  and  _424
REMARK  179  A    between atoms: _424  and  _425
REMARK  180  A    between atoms: _427  and  _429
REMARK  181  A    between atoms: _429  and  _430
REMARK  182  A    between atoms: _432  and  _434
REMARK  183  A    between atoms: _434  and  _435
REMARK  184  A    between atoms: _434  and  _437
REMARK  185  A    between atoms: _440  and  _442
REMARK  186  A    between atoms: _442  and  _443
REMARK  187  A    between atoms: _445  and  _447
REMARK  188  A    between atoms: _447  and  _448
REMARK  189  A    between atoms: _450  and  _452
REMARK  190  A    between atoms: _452  and  _453
REMARK  191  A    between atoms: _452  and  _455
REMARK  192  A    between atoms: _455  and  _456
REMARK  193  A    between atoms: _462  and  _464
REMARK  194  A    between atoms: _464  and  _465
REMARK  195  A    between atoms: _464  and  _467
REMARK  196  A    between atoms: _467  and  _468
REMARK  197  A    between atoms: _471  and  _473
REMARK  198  A    between atoms: _473  and  _474
REMARK  199  A    between atoms: _473  and  _476
REMARK  200  A    between atoms: _479  and  _481
REMARK  201  A    between atoms: _481  and  _482
REMARK  202  A    between atoms: _481  and  _484
REMARK  203  A    between atoms: _484  and  _485
REMARK  204  A    between atoms: _489  and  _490
REMARK  205  A    between atoms: _495  and  _497
REMARK  206  A    between atoms: _497  and  _498
REMARK  207  A    between atoms: _497  and  _500
REMARK  208  A    between atoms: _500  and  _501
REMARK  209  A    between atoms: _505  and  _506
REMARK  210  A    between atoms: _511  and  _513
REMARK  211  A    between atoms: _513  and  _514
REMARK  212  A    between atoms: _513  and  _516
REMARK  213  A    between atoms: _519  and  _521
REMARK  214  A    between atoms: _521  and  _522
REMARK  215  A    between atoms: _521  and  _524
REMARK  216  A    between atoms: _524  and  _525
REMARK  217  A    between atoms: _530  and  _532
REMARK  218  A    between atoms: _532  and  _533
REMARK  219  A    between atoms: _532  and  _535
REMARK  220  A    between atoms: _535  and  _536
REMARK  221  A    between atoms: _539  and  _541
REMARK  222  A    between atoms: _541  and  _542
REMARK  223  A    between atoms: _541  and  _544
REMARK  224  A    between atoms: _544  and  _545
REMARK  225  A    between atoms: _548  and  _550
REMARK  226  A    between atoms: _550  and  _551
REMARK  227  A    between atoms: _553  and  _555
REMARK  228  A    between atoms: _555  and  _556
REMARK  229  A    between atoms: _555  and  _558
REMARK  230  A    between atoms: _558  and  _559
REMARK  231  A    between atoms: _559  and  _560
REMARK  232  A    between atoms: _560  and  _561
REMARK  233  A    between atoms: _570  and  _572
REMARK  234  A    between atoms: _572  and  _573
REMARK  235  A    between atoms: _572  and  _575
REMARK  236  A    between atoms: _575  and  _576
REMARK                            x       y       z     vdW  Elec       q    Type
REMARK                         _______ _______ _______ _____ _____    ______ ____
ROOT
ATOM      1  O   HOH     1      20.239  28.693  21.022  0.00  0.00    +0.000 OA
ENDROOT
TORSDOF 0
REMARK  Name = ../refined-set-2016/2avq/2avq_pocket.pdb
REMARK  236 active torsions:
REMARK  status: ('A' for Active; 'I' for Inactive)
REMARK    1  A    between atoms: _1  and  _3
REMARK    2  A    between atoms: _3  and  _4
REMARK    3  A    between atoms: _3  and  _6
REMARK    4  A    between atoms: _6  and  _7
REMARK    5  A    between atoms: _7  and  _8
REMARK    6  A    between atoms: _8  and  _9
REMARK    7  A    between atoms: _18  and  _20
REMARK    8  A    between atoms: _20  and  _21
REMARK    9  A    between atoms: _20  and  _23
REMARK   10  A    between atoms: _23  and  _24
REMARK   11  A    between atoms: _27  and  _29
REMARK   12  A    between atoms: _29  and  _30
REMARK   13  A    between atoms: _29  and  _32
REMARK   14  A    between atoms: _32  and  _33
REMARK   15  A    between atoms: _36  and  _38
REMARK   16  A    between atoms: _38  and  _39
REMARK   17  A    between atoms: _38  and  _41
REMARK   18  A    between atoms: _41  and  _42
REMARK   19  A    between atoms: _45  and  _47
REMARK   20  A    between atoms: _47  and  _48
REMARK   21  A    between atoms: _47  and  _50
REMARK   22  A    between atoms: _50  and  _51
REMARK   23  A    between atoms: _54  and  _56
REMARK   24  A    between atoms: _56  and  _57
REMARK   25  A    between atoms: _56  and  _59
REMARK   26  A    between atoms: _59  and  _60
REMARK   27  A    between atoms: _63  and  _65
REMARK   28  A    between atoms: _65  and  _66
REMARK   29  A    between atoms: _68  and  _70
REMARK   30  A    between atoms: _70  and  _71
REMARK   31  A    between atoms: _74  and  _76
REMARK   32  A    between atoms: _76  and  _77
REMARK   33  A    between atoms: _76  and  _79
REMARK   34  A    between atoms: _79  and  _80
REMARK   35  A    between atoms: _83  and  _85
REMARK   36  A    between atoms: _85  and  _86
REMARK   37  A    between atoms: _85  and  _88
REMARK   38  A    between atoms: _88  and  _89
REMARK   39  A    between atoms: _92  and  _94
REMARK   40  A    between atoms: _94  and  _95
REMARK   41  A    between atoms: _94  and  _97
REMARK   42  A    between atoms: _97  and  _98
REMARK   43  A    between atoms: _101  and  _103
REMARK   44  A    between atoms: _103  and  _104
REMARK   45  A    between atoms: _103  and  _106
REMARK   46  A    between atoms: _109  and  _111
REMARK   47  A    between atoms: _111  and  _112
REMARK   48  A    between atoms: _111  and  _114
REMARK   49  A    between atoms: _114  and  _115
REMARK   50  A    between atoms: _115  and  _116
REMARK   51  A    between atoms: _116  and  _117
REMARK   52  A    between atoms: _117  and  _118
REMARK   53  A    between atoms: _122  and  _124
REMARK   54  A    between atoms: _124  and  _125
REMARK   55  A    between atoms: _124  and  _127
REMARK   56  A    between atoms: _127  and  _128
REMARK   57  A    between atoms: _128  and  _129
REMARK   58  A    between atoms: _131  and  _133
REMARK   59  A    between atoms: _133  and  _134
REMARK   60  A    between atoms: _133  and  _136
REMARK   61  A    between atoms: _136  and  _137
REMARK   62  A    between atoms: _140  and  _142
REMARK   63  A    between atoms: _142  and  _143
REMARK   64  A    between atoms: _145  and  _147
REMARK   65  A    between atoms: _147  and  _148
REMARK   66  A    between atoms: _150  and  _152
REMARK   67  A    between atoms: _152  and  _153
REMARK   68  A    between atoms: _152  and  _155
REMARK   69  A    between atoms: _158  and  _160
REMARK   70  A    between atoms: _160  and  _161
REMARK   71  A    between atoms: _163  and  _165
REMARK   72  A    between atoms: _165  and  _166
REMARK   73  A    between atoms: _168  and  _170
REMARK   74  A    between atoms: _170  and  _171
REMARK   75  A    between atoms: _170  and  _173
REMARK   76  A    between atoms: _173  and  _174
REMARK   77  A    between atoms: _180  and  _182
REMARK   78  A    between atoms: _182  and  _183
REMARK   79  A    between atoms: _182  and  _185
REMARK   80  A    between atoms: _185  and  _186
REMARK   81  A    between atoms: _189  and  _191
REMARK   82  A    between atoms: _191  and  _192
REMARK   83  A    between atoms: _191  and  _194
REMARK   84  A    between atoms: _197  and  _199
REMARK   85  A    between atoms: _199  and  _200
REMARK   86  A    between atoms: _199  and  _202
REMARK   87  A    between atoms: _202  and  _203
REMARK   88  A    between atoms: _206  and  _208
REMARK   89  A    between atoms: _208  and  _209
REMARK   90  A    between atoms: _208  and  _211
REMARK   91  A    between atoms: _211  and  _212
REMARK   92  A    between atoms: _216  and  _217
REMARK   93  A    between atoms: _222  and  _224
REMARK   94  A    between atoms: _224  and  _225
REMARK   95  A    between atoms: _224  and  _227
REMARK   96  A    between atoms: _230  and  _232
REMARK   97  A    between atoms: _232  and  _233
REMARK   98  A    between atoms: _232  and  _235
REMARK   99  A    between atoms: _235  and  _236
REMARK  100  A    between atoms: _241  and  _243
REMARK  101  A    between atoms: _243  and  _244
REMARK  102  A    between atoms: _243  and  _246
REMARK  103  A    between atoms: _246  and  _247
REMARK  104  A    between atoms: _250  and  _252
REMARK  105  A    between atoms: _252  and  _253
REMARK  106  A    between atoms: _252  and  _255
REMARK  107  A    between atoms: _255  and  _256
REMARK  108  A    between atoms: _259  and  _261
REMARK  109  A    between atoms: _261  and  _262
REMARK  110  A    between atoms: _264  and  _266
REMARK  111  A    between atoms: _266  and  _267
REMARK  112  A    between atoms: _266  and  _269
REMARK  113  A    between atoms: _269  and  _270
REMARK  114  A    between atoms: _270  and  _271
REMARK  115  A    between atoms: _271  and  _272
REMARK  116  A    between atoms: _281  and  _283
REMARK  117  A    between atoms: _283  and  _284
REMARK  118  A    between atoms: _283  and  _286
REMARK  119  A    between atoms: _286  and  _287
REMARK  120  A    between atoms: _292  and  _294
REMARK  121  A    between atoms: _294  and  _295
REMARK  122  A    between atoms: _294  and  _297
REMARK  123  A    between atoms: _297  and  _298
REMARK  124  A    between atoms: _298  and  _299
REMARK  125  A    between atoms: _299  and  _300
REMARK  126  A    between atoms: _302  and  _303
REMARK  127  A    between atoms: _309  and  _311
REMARK  128  A    between atoms: _311  and  _312
REMARK  129  A    between atoms: _311  and  _314
REMARK  130  A    between atoms: _314  and  _315
REMARK  131  A    between atoms: _318  and  _320
REMARK  132  A    between atoms: _320  and  _321
REMARK  133  A    between atoms: _320  and  _323
REMARK  134  A    between atoms: _323  and  _324
REMARK  135  A    between atoms: _327  and  _329
REMARK  136  A    between atoms: _329  and  _330
REMARK  137  A    between atoms: _329  and  _332
REMARK  138  A    between atoms: _332  and  _333
REMARK  139  A    between atoms: _336  and  _338
REMARK  140  A    between atoms: _338  and  _339
REMARK  141  A    between atoms: _338  and  _341
REMARK  142  A    between atoms: _341  and  _342
REMARK  143  A    between atoms: _345  and  _347
REMARK  144  A    between atoms: _347  and  _348
REMARK  145  A    between atoms: _350  and  _352
REMARK  146  A    between atoms: _352  and  _353
REMARK  147  A    between atoms: _356  and  _358
REMARK  148  A    between atoms: _358  and  _359
REMARK  149  A    between atoms: _358  and  _361
REMARK  150  A    between atoms: _361  and  _362
REMARK  151  A    between atoms: _365  and  _367
REMARK  152  A    between atoms: _367  and  _368
REMARK  153  A    between atoms: _367  and  _370
REMARK  154  A    between atoms: _370  and  _371
REMARK  155  A    between atoms: _374  and  _376
REMARK  156  A    between atoms: _376  and  _377
REMARK  157  A    between atoms: _376  and  _379
REMARK  158  A    between atoms: _379  and  _380
REMARK  159  A    between atoms: _383  and  _385
REMARK  160  A    between atoms: _385  and  _386
REMARK  161  A    between atoms: _385  and  _388
REMARK  162  A    between atoms: _391  and  _393
REMARK  163  A    between atoms: _393  and  _394
REMARK  164  A    between atoms: _393  and  _396
REMARK  165  A    between atoms: _396  and  _397
REMARK  166  A    between atoms: _397  and  _398
REMARK  167  A    between atoms: _398  and  _399
REMARK  168  A    between atoms: _399  and  _400
REMARK  169  A    between atoms: _404  and  _406
REMARK  170  A    between atoms: _406  and  _407
REMARK  171  A    between atoms: _406  and  _409
REMARK  172  A    between atoms: _409  and  _410
REMARK  173  A    between atoms: _410  and  _411
REMARK  174  A    between atoms: _413  and  _415
REMARK  175  A    between atoms: _415  and  _416
REMARK  176  A    between atoms: _415  and  _418
REMARK  177  A    between atoms: _418  and  _419
REMARK  178  A    between atoms: _422  and  _424
REMARK  179  A    between atoms: _424  and  _425
REMARK  180  A    between atoms: _427  and  _429
REMARK  181  A    between atoms: _429  and  _430
REMARK  182  A    between atoms: _432  and  _434
REMARK  183  A    between atoms: _434  and  _435
REMARK  184  A    between atoms: _434  and  _437
REMARK  185  A    between atoms: _440  and  _442
REMARK  186  A    between atoms: _442  and  _443
REMARK  187  A    between atoms: _445  and  _447
REMARK  188  A    between atoms: _447  and  _448
REMARK  189  A    between atoms: _450  and  _452
REMARK  190  A    between atoms: _452  and  _453
REMARK  191  A    between atoms: _452  and  _455
REMARK  192  A    between atoms: _455  and  _456
REMARK  193  A    between atoms: _462  and  _464
REMARK  194  A    between atoms: _464  and  _465
REMARK  195  A    between atoms: _464  and  _467
REMARK  196  A    between atoms: _467  and  _468
REMARK  197  A    between atoms: _471  and  _473
REMARK  198  A    between atoms: _473  and  _474
REMARK  199  A    between atoms: _473  and  _476
REMARK  200  A    between atoms: _479  and  _481
REMARK  201  A    between atoms: _481  and  _482
REMARK  202  A    between atoms: _481  and  _484
REMARK  203  A    between atoms: _484  and  _485
REMARK  204  A    between atoms: _489  and  _490
REMARK  205  A    between atoms: _495  and  _497
REMARK  206  A    between atoms: _497  and  _498
REMARK  207  A    between atoms: _497  and  _500
REMARK  208  A    between atoms: _500  and  _501
REMARK  209  A    between atoms: _505  and  _506
REMARK  210  A    between atoms: _511  and  _513
REMARK  211  A    between atoms: _513  and  _514
REMARK  212  A    between atoms: _513  and  _516
REMARK  213  A    between atoms: _519  and  _521
REMARK  214  A    between atoms: _521  and  _522
REMARK  215  A    between atoms: _521  and  _524
REMARK  216  A    between atoms: _524  and  _525
REMARK  217  A    between atoms: _530  and  _532
REMARK  218  A    between atoms: _532  and  _533
REMARK  219  A    between atoms: _532  and  _535
REMARK  220  A    between atoms: _535  and  _536
REMARK  221  A    between atoms: _539  and  _541
REMARK  222  A    between atoms: _541  and  _542
REMARK  223  A    between atoms: _541  and  _544
REMARK  224  A    between atoms: _544  and  _545
REMARK  225  A    between atoms: _548  and  _550
REMARK  226  A    between atoms: _550  and  _551
REMARK  227  A    between atoms: _553  and  _555
REMARK  228  A    between atoms: _555  and  _556
REMARK  229  A    between atoms: _555  and  _558
REMARK  230  A    between atoms: _558  and  _559
REMARK  231  A    between atoms: _559  and  _560
REMARK  232  A    between atoms: _560  and  _561
REMARK  233  A    between atoms: _570  and  _572
REMARK  234  A    between atoms: _572  and  _573
REMARK  235  A    between atoms: _572  and  _575
REMARK  236  A    between atoms: _575  and  _576
REMARK                            x       y       z     vdW  Elec       q    Type
REMARK                         _______ _______ _______ _____ _____    ______ ____
ROOT
ATOM      1  O   HOH     1      18.428  30.765  21.662  0.00  0.00    +0.000 OA
ENDROOT
TORSDOF 0
REMARK  Name = ../refined-set-2016/2avq/2avq_pocket.pdb
REMARK  236 active torsions:
REMARK  status: ('A' for Active; 'I' for Inactive)
REMARK    1  A    between atoms: _1  and  _3
REMARK    2  A    between atoms: _3  and  _4
REMARK    3  A    between atoms: _3  and  _6
REMARK    4  A    between atoms: _6  and  _7
REMARK    5  A    between atoms: _7  and  _8
REMARK    6  A    between atoms: _8  and  _9
REMARK    7  A    between atoms: _18  and  _20
REMARK    8  A    between atoms: _20  and  _21
REMARK    9  A    between atoms: _20  and  _23
REMARK   10  A    between atoms: _23  and  _24
REMARK   11  A    between atoms: _27  and  _29
REMARK   12  A    between atoms: _29  and  _30
REMARK   13  A    between atoms: _29  and  _32
REMARK   14  A    between atoms: _32  and  _33
REMARK   15  A    between atoms: _36  and  _38
REMARK   16  A    between atoms: _38  and  _39
REMARK   17  A    between atoms: _38  and  _41
REMARK   18  A    between atoms: _41  and  _42
REMARK   19  A    between atoms: _45  and  _47
REMARK   20  A    between atoms: _47  and  _48
REMARK   21  A    between atoms: _47  and  _50
REMARK   22  A    between atoms: _50  and  _51
REMARK   23  A    between atoms: _54  and  _56
REMARK   24  A    between atoms: _56  and  _57
REMARK   25  A    between atoms: _56  and  _59
REMARK   26  A    between atoms: _59  and  _60
REMARK   27  A    between atoms: _63  and  _65
REMARK   28  A    between atoms: _65  and  _66
REMARK   29  A    between atoms: _68  and  _70
REMARK   30  A    between atoms: _70  and  _71
REMARK   31  A    between atoms: _74  and  _76
REMARK   32  A    between atoms: _76  and  _77
REMARK   33  A    between atoms: _76  and  _79
REMARK   34  A    between atoms: _79  and  _80
REMARK   35  A    between atoms: _83  and  _85
REMARK   36  A    between atoms: _85  and  _86
REMARK   37  A    between atoms: _85  and  _88
REMARK   38  A    between atoms: _88  and  _89
REMARK   39  A    between atoms: _92  and  _94
REMARK   40  A    between atoms: _94  and  _95
REMARK   41  A    between atoms: _94  and  _97
REMARK   42  A    between atoms: _97  and  _98
REMARK   43  A    between atoms: _101  and  _103
REMARK   44  A    between atoms: _103  and  _104
REMARK   45  A    between atoms: _103  and  _106
REMARK   46  A    between atoms: _109  and  _111
REMARK   47  A    between atoms: _111  and  _112
REMARK   48  A    between atoms: _111  and  _114
REMARK   49  A    between atoms: _114  and  _115
REMARK   50  A    between atoms: _115  and  _116
REMARK   51  A    between atoms: _116  and  _117
REMARK   52  A    between atoms: _117  and  _118
REMARK   53  A    between atoms: _122  and  _124
REMARK   54  A    between atoms: _124  and  _125
REMARK   55  A    between atoms: _124  and  _127
REMARK   56  A    between atoms: _127  and  _128
REMARK   57  A    between atoms: _128  and  _129
REMARK   58  A    between atoms: _131  and  _133
REMARK   59  A    between atoms: _133  and  _134
REMARK   60  A    between atoms: _133  and  _136
REMARK   61  A    between atoms: _136  and  _137
REMARK   62  A    between atoms: _140  and  _142
REMARK   63  A    between atoms: _142  and  _143
REMARK   64  A    between atoms: _145  and  _147
REMARK   65  A    between atoms: _147  and  _148
REMARK   66  A    between atoms: _150  and  _152
REMARK   67  A    between atoms: _152  and  _153
REMARK   68  A    between atoms: _152  and  _155
REMARK   69  A    between atoms: _158  and  _160
REMARK   70  A    between atoms: _160  and  _161
REMARK   71  A    between atoms: _163  and  _165
REMARK   72  A    between atoms: _165  and  _166
REMARK   73  A    between atoms: _168  and  _170
REMARK   74  A    between atoms: _170  and  _171
REMARK   75  A    between atoms: _170  and  _173
REMARK   76  A    between atoms: _173  and  _174
REMARK   77  A    between atoms: _180  and  _182
REMARK   78  A    between atoms: _182  and  _183
REMARK   79  A    between atoms: _182  and  _185
REMARK   80  A    between atoms: _185  and  _186
REMARK   81  A    between atoms: _189  and  _191
REMARK   82  A    between atoms: _191  and  _192
REMARK   83  A    between atoms: _191  and  _194
REMARK   84  A    between atoms: _197  and  _199
REMARK   85  A    between atoms: _199  and  _200
REMARK   86  A    between atoms: _199  and  _202
REMARK   87  A    between atoms: _202  and  _203
REMARK   88  A    between atoms: _206  and  _208
REMARK   89  A    between atoms: _208  and  _209
REMARK   90  A    between atoms: _208  and  _211
REMARK   91  A    between atoms: _211  and  _212
REMARK   92  A    between atoms: _216  and  _217
REMARK   93  A    between atoms: _222  and  _224
REMARK   94  A    between atoms: _224  and  _225
REMARK   95  A    between atoms: _224  and  _227
REMARK   96  A    between atoms: _230  and  _232
REMARK   97  A    between atoms: _232  and  _233
REMARK   98  A    between atoms: _232  and  _235
REMARK   99  A    between atoms: _235  and  _236
REMARK  100  A    between atoms: _241  and  _243
REMARK  101  A    between atoms: _243  and  _244
REMARK  102  A    between atoms: _243  and  _246
REMARK  103  A    between atoms: _246  and  _247
REMARK  104  A    between atoms: _250  and  _252
REMARK  105  A    between atoms: _252  and  _253
REMARK  106  A    between atoms: _252  and  _255
REMARK  107  A    between atoms: _255  and  _256
REMARK  108  A    between atoms: _259  and  _261
REMARK  109  A    between atoms: _261  and  _262
REMARK  110  A    between atoms: _264  and  _266
REMARK  111  A    between atoms: _266  and  _267
REMARK  112  A    between atoms: _266  and  _269
REMARK  113  A    between atoms: _269  and  _270
REMARK  114  A    between atoms: _270  and  _271
REMARK  115  A    between atoms: _271  and  _272
REMARK  116  A    between atoms: _281  and  _283
REMARK  117  A    between atoms: _283  and  _284
REMARK  118  A    between atoms: _283  and  _286
REMARK  119  A    between atoms: _286  and  _287
REMARK  120  A    between atoms: _292  and  _294
REMARK  121  A    between atoms: _294  and  _295
REMARK  122  A    between atoms: _294  and  _297
REMARK  123  A    between atoms: _297  and  _298
REMARK  124  A    between atoms: _298  and  _299
REMARK  125  A    between atoms: _299  and  _300
REMARK  126  A    between atoms: _302  and  _303
REMARK  127  A    between atoms: _309  and  _311
REMARK  128  A    between atoms: _311  and  _312
REMARK  129  A    between atoms: _311  and  _314
REMARK  130  A    between atoms: _314  and  _315
REMARK  131  A    between atoms: _318  and  _320
REMARK  132  A    between atoms: _320  and  _321
REMARK  133  A    between atoms: _320  and  _323
REMARK  134  A    between atoms: _323  and  _324
REMARK  135  A    between atoms: _327  and  _329
REMARK  136  A    between atoms: _329  and  _330
REMARK  137  A    between atoms: _329  and  _332
REMARK  138  A    between atoms: _332  and  _333
REMARK  139  A    between atoms: _336  and  _338
REMARK  140  A    between atoms: _338  and  _339
REMARK  141  A    between atoms: _338  and  _341
REMARK  142  A    between atoms: _341  and  _342
REMARK  143  A    between atoms: _345  and  _347
REMARK  144  A    between atoms: _347  and  _348
REMARK  145  A    between atoms: _350  and  _352
REMARK  146  A    between atoms: _352  and  _353
REMARK  147  A    between atoms: _356  and  _358
REMARK  148  A    between atoms: _358  and  _359
REMARK  149  A    between atoms: _358  and  _361
REMARK  150  A    between atoms: _361  and  _362
REMARK  151  A    between atoms: _365  and  _367
REMARK  152  A    between atoms: _367  and  _368
REMARK  153  A    between atoms: _367  and  _370
REMARK  154  A    between atoms: _370  and  _371
REMARK  155  A    between atoms: _374  and  _376
REMARK  156  A    between atoms: _376  and  _377
REMARK  157  A    between atoms: _376  and  _379
REMARK  158  A    between atoms: _379  and  _380
REMARK  159  A    between atoms: _383  and  _385
REMARK  160  A    between atoms: _385  and  _386
REMARK  161  A    between atoms: _385  and  _388
REMARK  162  A    between atoms: _391  and  _393
REMARK  163  A    between atoms: _393  and  _394
REMARK  164  A    between atoms: _393  and  _396
REMARK  165  A    between atoms: _396  and  _397
REMARK  166  A    between atoms: _397  and  _398
REMARK  167  A    between atoms: _398  and  _399
REMARK  168  A    between atoms: _399  and  _400
REMARK  169  A    between atoms: _404  and  _406
REMARK  170  A    between atoms: _406  and  _407
REMARK  171  A    between atoms: _406  and  _409
REMARK  172  A    between atoms: _409  and  _410
REMARK  173  A    between atoms: _410  and  _411
REMARK  174  A    between atoms: _413  and  _415
REMARK  175  A    between atoms: _415  and  _416
REMARK  176  A    between atoms: _415  and  _418
REMARK  177  A    between atoms: _418  and  _419
REMARK  178  A    between atoms: _422  and  _424
REMARK  179  A    between atoms: _424  and  _425
REMARK  180  A    between atoms: _427  and  _429
REMARK  181  A    between atoms: _429  and  _430
REMARK  182  A    between atoms: _432  and  _434
REMARK  183  A    between atoms: _434  and  _435
REMARK  184  A    between atoms: _434  and  _437
REMARK  185  A    between atoms: _440  and  _442
REMARK  186  A    between atoms: _442  and  _443
REMARK  187  A    between atoms: _445  and  _447
REMARK  188  A    between atoms: _447  and  _448
REMARK  189  A    between atoms: _450  and  _452
REMARK  190  A    between atoms: _452  and  _453
REMARK  191  A    between atoms: _452  and  _455
REMARK  192  A    between atoms: _455  and  _456
REMARK  193  A    between atoms: _462  and  _464
REMARK  194  A    between atoms: _464  and  _465
REMARK  195  A    between atoms: _464  and  _467
REMARK  196  A    between atoms: _467  and  _468
REMARK  197  A    between atoms: _471  and  _473
REMARK  198  A    between atoms: _473  and  _474
REMARK  199  A    between atoms: _473  and  _476
REMARK  200  A    between atoms: _479  and  _481
REMARK  201  A    between atoms: _481  and  _482
REMARK  202  A    between atoms: _481  and  _484
REMARK  203  A    between atoms: _484  and  _485
REMARK  204  A    between atoms: _489  and  _490
REMARK  205  A    between atoms: _495  and  _497
REMARK  206  A    between atoms: _497  and  _498
REMARK  207  A    between atoms: _497  and  _500
REMARK  208  A    between atoms: _500  and  _501
REMARK  209  A    between atoms: _505  and  _506
REMARK  210  A    between atoms: _511  and  _513
REMARK  211  A    between atoms: _513  and  _514
REMARK  212  A    between atoms: _513  and  _516
REMARK  213  A    between atoms: _519  and  _521
REMARK  214  A    between atoms: _521  and  _522
REMARK  215  A    between atoms: _521  and  _524
REMARK  216  A    between atoms: _524  and  _525
REMARK  217  A    between atoms: _530  and  _532
REMARK  218  A    between atoms: _532  and  _533
REMARK  219  A    between atoms: _532  and  _535
REMARK  220  A    between atoms: _535  and  _536
REMARK  221  A    between atoms: _539  and  _541
REMARK  222  A    between atoms: _541  and  _542
REMARK  223  A    between atoms: _541  and  _544
REMARK  224  A    between atoms: _544  and  _545
REMARK  225  A    between atoms: _548  and  _550
REMARK  226  A    between atoms: _550  and  _551
REMARK  227  A    between atoms: _553  and  _555
REMARK  228  A    between atoms: _555  and  _556
REMARK  229  A    between atoms: _555  and  _558
REMARK  230  A    between atoms: _558  and  _559
REMARK  231  A    between atoms: _559  and  _560
REMARK  232  A    between atoms: _560  and  _561
REMARK  233  A    between atoms: _570  and  _572
REMARK  234  A    between atoms: _572  and  _573
REMARK  235  A    between atoms: _572  and  _575
REMARK  236  A    between atoms: _575  and  _576
REMARK                            x       y       z     vdW  Elec       q    Type
REMARK                         _______ _______ _______ _____ _____    ______ ____
ROOT
ATOM      1  O   HOH     1      20.774  33.600  10.617  0.00  0.00    +0.000 OA
ENDROOT
TORSDOF 0
REMARK  Name = ../refined-set-2016/2avq/2avq_pocket.pdb
REMARK  236 active torsions:
REMARK  status: ('A' for Active; 'I' for Inactive)
REMARK    1  A    between atoms: _1  and  _3
REMARK    2  A    between atoms: _3  and  _4
REMARK    3  A    between atoms: _3  and  _6
REMARK    4  A    between atoms: _6  and  _7
REMARK    5  A    between atoms: _7  and  _8
REMARK    6  A    between atoms: _8  and  _9
REMARK    7  A    between atoms: _18  and  _20
REMARK    8  A    between atoms: _20  and  _21
REMARK    9  A    between atoms: _20  and  _23
REMARK   10  A    between atoms: _23  and  _24
REMARK   11  A    between atoms: _27  and  _29
REMARK   12  A    between atoms: _29  and  _30
REMARK   13  A    between atoms: _29  and  _32
REMARK   14  A    between atoms: _32  and  _33
REMARK   15  A    between atoms: _36  and  _38
REMARK   16  A    between atoms: _38  and  _39
REMARK   17  A    between atoms: _38  and  _41
REMARK   18  A    between atoms: _41  and  _42
REMARK   19  A    between atoms: _45  and  _47
REMARK   20  A    between atoms: _47  and  _48
REMARK   21  A    between atoms: _47  and  _50
REMARK   22  A    between atoms: _50  and  _51
REMARK   23  A    between atoms: _54  and  _56
REMARK   24  A    between atoms: _56  and  _57
REMARK   25  A    between atoms: _56  and  _59
REMARK   26  A    between atoms: _59  and  _60
REMARK   27  A    between atoms: _63  and  _65
REMARK   28  A    between atoms: _65  and  _66
REMARK   29  A    between atoms: _68  and  _70
REMARK   30  A    between atoms: _70  and  _71
REMARK   31  A    between atoms: _74  and  _76
REMARK   32  A    between atoms: _76  and  _77
REMARK   33  A    between atoms: _76  and  _79
REMARK   34  A    between atoms: _79  and  _80
REMARK   35  A    between atoms: _83  and  _85
REMARK   36  A    between atoms: _85  and  _86
REMARK   37  A    between atoms: _85  and  _88
REMARK   38  A    between atoms: _88  and  _89
REMARK   39  A    between atoms: _92  and  _94
REMARK   40  A    between atoms: _94  and  _95
REMARK   41  A    between atoms: _94  and  _97
REMARK   42  A    between atoms: _97  and  _98
REMARK   43  A    between atoms: _101  and  _103
REMARK   44  A    between atoms: _103  and  _104
REMARK   45  A    between atoms: _103  and  _106
REMARK   46  A    between atoms: _109  and  _111
REMARK   47  A    between atoms: _111  and  _112
REMARK   48  A    between atoms: _111  and  _114
REMARK   49  A    between atoms: _114  and  _115
REMARK   50  A    between atoms: _115  and  _116
REMARK   51  A    between atoms: _116  and  _117
REMARK   52  A    between atoms: _117  and  _118
REMARK   53  A    between atoms: _122  and  _124
REMARK   54  A    between atoms: _124  and  _125
REMARK   55  A    between atoms: _124  and  _127
REMARK   56  A    between atoms: _127  and  _128
REMARK   57  A    between atoms: _128  and  _129
REMARK   58  A    between atoms: _131  and  _133
REMARK   59  A    between atoms: _133  and  _134
REMARK   60  A    between atoms: _133  and  _136
REMARK   61  A    between atoms: _136  and  _137
REMARK   62  A    between atoms: _140  and  _142
REMARK   63  A    between atoms: _142  and  _143
REMARK   64  A    between atoms: _145  and  _147
REMARK   65  A    between atoms: _147  and  _148
REMARK   66  A    between atoms: _150  and  _152
REMARK   67  A    between atoms: _152  and  _153
REMARK   68  A    between atoms: _152  and  _155
REMARK   69  A    between atoms: _158  and  _160
REMARK   70  A    between atoms: _160  and  _161
REMARK   71  A    between atoms: _163  and  _165
REMARK   72  A    between atoms: _165  and  _166
REMARK   73  A    between atoms: _168  and  _170
REMARK   74  A    between atoms: _170  and  _171
REMARK   75  A    between atoms: _170  and  _173
REMARK   76  A    between atoms: _173  and  _174
REMARK   77  A    between atoms: _180  and  _182
REMARK   78  A    between atoms: _182  and  _183
REMARK   79  A    between atoms: _182  and  _185
REMARK   80  A    between atoms: _185  and  _186
REMARK   81  A    between atoms: _189  and  _191
REMARK   82  A    between atoms: _191  and  _192
REMARK   83  A    between atoms: _191  and  _194
REMARK   84  A    between atoms: _197  and  _199
REMARK   85  A    between atoms: _199  and  _200
REMARK   86  A    between atoms: _199  and  _202
REMARK   87  A    between atoms: _202  and  _203
REMARK   88  A    between atoms: _206  and  _208
REMARK   89  A    between atoms: _208  and  _209
REMARK   90  A    between atoms: _208  and  _211
REMARK   91  A    between atoms: _211  and  _212
REMARK   92  A    between atoms: _216  and  _217
REMARK   93  A    between atoms: _222  and  _224
REMARK   94  A    between atoms: _224  and  _225
REMARK   95  A    between atoms: _224  and  _227
REMARK   96  A    between atoms: _230  and  _232
REMARK   97  A    between atoms: _232  and  _233
REMARK   98  A    between atoms: _232  and  _235
REMARK   99  A    between atoms: _235  and  _236
REMARK  100  A    between atoms: _241  and  _243
REMARK  101  A    between atoms: _243  and  _244
REMARK  102  A    between atoms: _243  and  _246
REMARK  103  A    between atoms: _246  and  _247
REMARK  104  A    between atoms: _250  and  _252
REMARK  105  A    between atoms: _252  and  _253
REMARK  106  A    between atoms: _252  and  _255
REMARK  107  A    between atoms: _255  and  _256
REMARK  108  A    between atoms: _259  and  _261
REMARK  109  A    between atoms: _261  and  _262
REMARK  110  A    between atoms: _264  and  _266
REMARK  111  A    between atoms: _266  and  _267
REMARK  112  A    between atoms: _266  and  _269
REMARK  113  A    between atoms: _269  and  _270
REMARK  114  A    between atoms: _270  and  _271
REMARK  115  A    between atoms: _271  and  _272
REMARK  116  A    between atoms: _281  and  _283
REMARK  117  A    between atoms: _283  and  _284
REMARK  118  A    between atoms: _283  and  _286
REMARK  119  A    between atoms: _286  and  _287
REMARK  120  A    between atoms: _292  and  _294
REMARK  121  A    between atoms: _294  and  _295
REMARK  122  A    between atoms: _294  and  _297
REMARK  123  A    between atoms: _297  and  _298
REMARK  124  A    between atoms: _298  and  _299
REMARK  125  A    between atoms: _299  and  _300
REMARK  126  A    between atoms: _302  and  _303
REMARK  127  A    between atoms: _309  and  _311
REMARK  128  A    between atoms: _311  and  _312
REMARK  129  A    between atoms: _311  and  _314
REMARK  130  A    between atoms: _314  and  _315
REMARK  131  A    between atoms: _318  and  _320
REMARK  132  A    between atoms: _320  and  _321
REMARK  133  A    between atoms: _320  and  _323
REMARK  134  A    between atoms: _323  and  _324
REMARK  135  A    between atoms: _327  and  _329
REMARK  136  A    between atoms: _329  and  _330
REMARK  137  A    between atoms: _329  and  _332
REMARK  138  A    between atoms: _332  and  _333
REMARK  139  A    between atoms: _336  and  _338
REMARK  140  A    between atoms: _338  and  _339
REMARK  141  A    between atoms: _338  and  _341
REMARK  142  A    between atoms: _341  and  _342
REMARK  143  A    between atoms: _345  and  _347
REMARK  144  A    between atoms: _347  and  _348
REMARK  145  A    between atoms: _350  and  _352
REMARK  146  A    between atoms: _352  and  _353
REMARK  147  A    between atoms: _356  and  _358
REMARK  148  A    between atoms: _358  and  _359
REMARK  149  A    between atoms: _358  and  _361
REMARK  150  A    between atoms: _361  and  _362
REMARK  151  A    between atoms: _365  and  _367
REMARK  152  A    between atoms: _367  and  _368
REMARK  153  A    between atoms: _367  and  _370
REMARK  154  A    between atoms: _370  and  _371
REMARK  155  A    between atoms: _374  and  _376
REMARK  156  A    between atoms: _376  and  _377
REMARK  157  A    between atoms: _376  and  _379
REMARK  158  A    between atoms: _379  and  _380
REMARK  159  A    between atoms: _383  and  _385
REMARK  160  A    between atoms: _385  and  _386
REMARK  161  A    between atoms: _385  and  _388
REMARK  162  A    between atoms: _391  and  _393
REMARK  163  A    between atoms: _393  and  _394
REMARK  164  A    between atoms: _393  and  _396
REMARK  165  A    between atoms: _396  and  _397
REMARK  166  A    between atoms: _397  and  _398
REMARK  167  A    between atoms: _398  and  _399
REMARK  168  A    between atoms: _399  and  _400
REMARK  169  A    between atoms: _404  and  _406
REMARK  170  A    between atoms: _406  and  _407
REMARK  171  A    between atoms: _406  and  _409
REMARK  172  A    between atoms: _409  and  _410
REMARK  173  A    between atoms: _410  and  _411
REMARK  174  A    between atoms: _413  and  _415
REMARK  175  A    between atoms: _415  and  _416
REMARK  176  A    between atoms: _415  and  _418
REMARK  177  A    between atoms: _418  and  _419
REMARK  178  A    between atoms: _422  and  _424
REMARK  179  A    between atoms: _424  and  _425
REMARK  180  A    between atoms: _427  and  _429
REMARK  181  A    between atoms: _429  and  _430
REMARK  182  A    between atoms: _432  and  _434
REMARK  183  A    between atoms: _434  and  _435
REMARK  184  A    between atoms: _434  and  _437
REMARK  185  A    between atoms: _440  and  _442
REMARK  186  A    between atoms: _442  and  _443
REMARK  187  A    between atoms: _445  and  _447
REMARK  188  A    between atoms: _447  and  _448
REMARK  189  A    between atoms: _450  and  _452
REMARK  190  A    between atoms: _452  and  _453
REMARK  191  A    between atoms: _452  and  _455
REMARK  192  A    between atoms: _455  and  _456
REMARK  193  A    between atoms: _462  and  _464
REMARK  194  A    between atoms: _464  and  _465
REMARK  195  A    between atoms: _464  and  _467
REMARK  196  A    between atoms: _467  and  _468
REMARK  197  A    between atoms: _471  and  _473
REMARK  198  A    between atoms: _473  and  _474
REMARK  199  A    between atoms: _473  and  _476
REMARK  200  A    between atoms: _479  and  _481
REMARK  201  A    between atoms: _481  and  _482
REMARK  202  A    between atoms: _481  and  _484
REMARK  203  A    between atoms: _484  and  _485
REMARK  204  A    between atoms: _489  and  _490
REMARK  205  A    between atoms: _495  and  _497
REMARK  206  A    between atoms: _497  and  _498
REMARK  207  A    between atoms: _497  and  _500
REMARK  208  A    between atoms: _500  and  _501
REMARK  209  A    between atoms: _505  and  _506
REMARK  210  A    between atoms: _511  and  _513
REMARK  211  A    between atoms: _513  and  _514
REMARK  212  A    between atoms: _513  and  _516
REMARK  213  A    between atoms: _519  and  _521
REMARK  214  A    between atoms: _521  and  _522
REMARK  215  A    between atoms: _521  and  _524
REMARK  216  A    between atoms: _524  and  _525
REMARK  217  A    between atoms: _530  and  _532
REMARK  218  A    between atoms: _532  and  _533
REMARK  219  A    between atoms: _532  and  _535
REMARK  220  A    between atoms: _535  and  _536
REMARK  221  A    between atoms: _539  and  _541
REMARK  222  A    between atoms: _541  and  _542
REMARK  223  A    between atoms: _541  and  _544
REMARK  224  A    between atoms: _544  and  _545
REMARK  225  A    between atoms: _548  and  _550
REMARK  226  A    between atoms: _550  and  _551
REMARK  227  A    between atoms: _553  and  _555
REMARK  228  A    between atoms: _555  and  _556
REMARK  229  A    between atoms: _555  and  _558
REMARK  230  A    between atoms: _558  and  _559
REMARK  231  A    between atoms: _559  and  _560
REMARK  232  A    between atoms: _560  and  _561
REMARK  233  A    between atoms: _570  and  _572
REMARK  234  A    between atoms: _572  and  _573
REMARK  235  A    between atoms: _572  and  _575
REMARK  236  A    between atoms: _575  and  _576
REMARK                            x       y       z     vdW  Elec       q    Type
REMARK                         _______ _______ _______ _____ _____    ______ ____
ROOT
ATOM      1  O   HOH     1       9.062  24.461   7.504  0.00  0.00    +0.000 OA
ENDROOT
TORSDOF 0
REMARK  Name = ../refined-set-2016/2avq/2avq_pocket.pdb
REMARK  236 active torsions:
REMARK  status: ('A' for Active; 'I' for Inactive)
REMARK    1  A    between atoms: _1  and  _3
REMARK    2  A    between atoms: _3  and  _4
REMARK    3  A    between atoms: _3  and  _6
REMARK    4  A    between atoms: _6  and  _7
REMARK    5  A    between atoms: _7  and  _8
REMARK    6  A    between atoms: _8  and  _9
REMARK    7  A    between atoms: _18  and  _20
REMARK    8  A    between atoms: _20  and  _21
REMARK    9  A    between atoms: _20  and  _23
REMARK   10  A    between atoms: _23  and  _24
REMARK   11  A    between atoms: _27  and  _29
REMARK   12  A    between atoms: _29  and  _30
REMARK   13  A    between atoms: _29  and  _32
REMARK   14  A    between atoms: _32  and  _33
REMARK   15  A    between atoms: _36  and  _38
REMARK   16  A    between atoms: _38  and  _39
REMARK   17  A    between atoms: _38  and  _41
REMARK   18  A    between atoms: _41  and  _42
REMARK   19  A    between atoms: _45  and  _47
REMARK   20  A    between atoms: _47  and  _48
REMARK   21  A    between atoms: _47  and  _50
REMARK   22  A    between atoms: _50  and  _51
REMARK   23  A    between atoms: _54  and  _56
REMARK   24  A    between atoms: _56  and  _57
REMARK   25  A    between atoms: _56  and  _59
REMARK   26  A    between atoms: _59  and  _60
REMARK   27  A    between atoms: _63  and  _65
REMARK   28  A    between atoms: _65  and  _66
REMARK   29  A    between atoms: _68  and  _70
REMARK   30  A    between atoms: _70  and  _71
REMARK   31  A    between atoms: _74  and  _76
REMARK   32  A    between atoms: _76  and  _77
REMARK   33  A    between atoms: _76  and  _79
REMARK   34  A    between atoms: _79  and  _80
REMARK   35  A    between atoms: _83  and  _85
REMARK   36  A    between atoms: _85  and  _86
REMARK   37  A    between atoms: _85  and  _88
REMARK   38  A    between atoms: _88  and  _89
REMARK   39  A    between atoms: _92  and  _94
REMARK   40  A    between atoms: _94  and  _95
REMARK   41  A    between atoms: _94  and  _97
REMARK   42  A    between atoms: _97  and  _98
REMARK   43  A    between atoms: _101  and  _103
REMARK   44  A    between atoms: _103  and  _104
REMARK   45  A    between atoms: _103  and  _106
REMARK   46  A    between atoms: _109  and  _111
REMARK   47  A    between atoms: _111  and  _112
REMARK   48  A    between atoms: _111  and  _114
REMARK   49  A    between atoms: _114  and  _115
REMARK   50  A    between atoms: _115  and  _116
REMARK   51  A    between atoms: _116  and  _117
REMARK   52  A    between atoms: _117  and  _118
REMARK   53  A    between atoms: _122  and  _124
REMARK   54  A    between atoms: _124  and  _125
REMARK   55  A    between atoms: _124  and  _127
REMARK   56  A    between atoms: _127  and  _128
REMARK   57  A    between atoms: _128  and  _129
REMARK   58  A    between atoms: _131  and  _133
REMARK   59  A    between atoms: _133  and  _134
REMARK   60  A    between atoms: _133  and  _136
REMARK   61  A    between atoms: _136  and  _137
REMARK   62  A    between atoms: _140  and  _142
REMARK   63  A    between atoms: _142  and  _143
REMARK   64  A    between atoms: _145  and  _147
REMARK   65  A    between atoms: _147  and  _148
REMARK   66  A    between atoms: _150  and  _152
REMARK   67  A    between atoms: _152  and  _153
REMARK   68  A    between atoms: _152  and  _155
REMARK   69  A    between atoms: _158  and  _160
REMARK   70  A    between atoms: _160  and  _161
REMARK   71  A    between atoms: _163  and  _165
REMARK   72  A    between atoms: _165  and  _166
REMARK   73  A    between atoms: _168  and  _170
REMARK   74  A    between atoms: _170  and  _171
REMARK   75  A    between atoms: _170  and  _173
REMARK   76  A    between atoms: _173  and  _174
REMARK   77  A    between atoms: _180  and  _182
REMARK   78  A    between atoms: _182  and  _183
REMARK   79  A    between atoms: _182  and  _185
REMARK   80  A    between atoms: _185  and  _186
REMARK   81  A    between atoms: _189  and  _191
REMARK   82  A    between atoms: _191  and  _192
REMARK   83  A    between atoms: _191  and  _194
REMARK   84  A    between atoms: _197  and  _199
REMARK   85  A    between atoms: _199  and  _200
REMARK   86  A    between atoms: _199  and  _202
REMARK   87  A    between atoms: _202  and  _203
REMARK   88  A    between atoms: _206  and  _208
REMARK   89  A    between atoms: _208  and  _209
REMARK   90  A    between atoms: _208  and  _211
REMARK   91  A    between atoms: _211  and  _212
REMARK   92  A    between atoms: _216  and  _217
REMARK   93  A    between atoms: _222  and  _224
REMARK   94  A    between atoms: _224  and  _225
REMARK   95  A    between atoms: _224  and  _227
REMARK   96  A    between atoms: _230  and  _232
REMARK   97  A    between atoms: _232  and  _233
REMARK   98  A    between atoms: _232  and  _235
REMARK   99  A    between atoms: _235  and  _236
REMARK  100  A    between atoms: _241  and  _243
REMARK  101  A    between atoms: _243  and  _244
REMARK  102  A    between atoms: _243  and  _246
REMARK  103  A    between atoms: _246  and  _247
REMARK  104  A    between atoms: _250  and  _252
REMARK  105  A    between atoms: _252  and  _253
REMARK  106  A    between atoms: _252  and  _255
REMARK  107  A    between atoms: _255  and  _256
REMARK  108  A    between atoms: _259  and  _261
REMARK  109  A    between atoms: _261  and  _262
REMARK  110  A    between atoms: _264  and  _266
REMARK  111  A    between atoms: _266  and  _267
REMARK  112  A    between atoms: _266  and  _269
REMARK  113  A    between atoms: _269  and  _270
REMARK  114  A    between atoms: _270  and  _271
REMARK  115  A    between atoms: _271  and  _272
REMARK  116  A    between atoms: _281  and  _283
REMARK  117  A    between atoms: _283  and  _284
REMARK  118  A    between atoms: _283  and  _286
REMARK  119  A    between atoms: _286  and  _287
REMARK  120  A    between atoms: _292  and  _294
REMARK  121  A    between atoms: _294  and  _295
REMARK  122  A    between atoms: _294  and  _297
REMARK  123  A    between atoms: _297  and  _298
REMARK  124  A    between atoms: _298  and  _299
REMARK  125  A    between atoms: _299  and  _300
REMARK  126  A    between atoms: _302  and  _303
REMARK  127  A    between atoms: _309  and  _311
REMARK  128  A    between atoms: _311  and  _312
REMARK  129  A    between atoms: _311  and  _314
REMARK  130  A    between atoms: _314  and  _315
REMARK  131  A    between atoms: _318  and  _320
REMARK  132  A    between atoms: _320  and  _321
REMARK  133  A    between atoms: _320  and  _323
REMARK  134  A    between atoms: _323  and  _324
REMARK  135  A    between atoms: _327  and  _329
REMARK  136  A    between atoms: _329  and  _330
REMARK  137  A    between atoms: _329  and  _332
REMARK  138  A    between atoms: _332  and  _333
REMARK  139  A    between atoms: _336  and  _338
REMARK  140  A    between atoms: _338  and  _339
REMARK  141  A    between atoms: _338  and  _341
REMARK  142  A    between atoms: _341  and  _342
REMARK  143  A    between atoms: _345  and  _347
REMARK  144  A    between atoms: _347  and  _348
REMARK  145  A    between atoms: _350  and  _352
REMARK  146  A    between atoms: _352  and  _353
REMARK  147  A    between atoms: _356  and  _358
REMARK  148  A    between atoms: _358  and  _359
REMARK  149  A    between atoms: _358  and  _361
REMARK  150  A    between atoms: _361  and  _362
REMARK  151  A    between atoms: _365  and  _367
REMARK  152  A    between atoms: _367  and  _368
REMARK  153  A    between atoms: _367  and  _370
REMARK  154  A    between atoms: _370  and  _371
REMARK  155  A    between atoms: _374  and  _376
REMARK  156  A    between atoms: _376  and  _377
REMARK  157  A    between atoms: _376  and  _379
REMARK  158  A    between atoms: _379  and  _380
REMARK  159  A    between atoms: _383  and  _385
REMARK  160  A    between atoms: _385  and  _386
REMARK  161  A    between atoms: _385  and  _388
REMARK  162  A    between atoms: _391  and  _393
REMARK  163  A    between atoms: _393  and  _394
REMARK  164  A    between atoms: _393  and  _396
REMARK  165  A    between atoms: _396  and  _397
REMARK  166  A    between atoms: _397  and  _398
REMARK  167  A    between atoms: _398  and  _399
REMARK  168  A    between atoms: _399  and  _400
REMARK  169  A    between atoms: _404  and  _406
REMARK  170  A    between atoms: _406  and  _407
REMARK  171  A    between atoms: _406  and  _409
REMARK  172  A    between atoms: _409  and  _410
REMARK  173  A    between atoms: _410  and  _411
REMARK  174  A    between atoms: _413  and  _415
REMARK  175  A    between atoms: _415  and  _416
REMARK  176  A    between atoms: _415  and  _418
REMARK  177  A    between atoms: _418  and  _419
REMARK  178  A    between atoms: _422  and  _424
REMARK  179  A    between atoms: _424  and  _425
REMARK  180  A    between atoms: _427  and  _429
REMARK  181  A    between atoms: _429  and  _430
REMARK  182  A    between atoms: _432  and  _434
REMARK  183  A    between atoms: _434  and  _435
REMARK  184  A    between atoms: _434  and  _437
REMARK  185  A    between atoms: _440  and  _442
REMARK  186  A    between atoms: _442  and  _443
REMARK  187  A    between atoms: _445  and  _447
REMARK  188  A    between atoms: _447  and  _448
REMARK  189  A    between atoms: _450  and  _452
REMARK  190  A    between atoms: _452  and  _453
REMARK  191  A    between atoms: _452  and  _455
REMARK  192  A    between atoms: _455  and  _456
REMARK  193  A    between atoms: _462  and  _464
REMARK  194  A    between atoms: _464  and  _465
REMARK  195  A    between atoms: _464  and  _467
REMARK  196  A    between atoms: _467  and  _468
REMARK  197  A    between atoms: _471  and  _473
REMARK  198  A    between atoms: _473  and  _474
REMARK  199  A    between atoms: _473  and  _476
REMARK  200  A    between atoms: _479  and  _481
REMARK  201  A    between atoms: _481  and  _482
REMARK  202  A    between atoms: _481  and  _484
REMARK  203  A    between atoms: _484  and  _485
REMARK  204  A    between atoms: _489  and  _490
REMARK  205  A    between atoms: _495  and  _497
REMARK  206  A    between atoms: _497  and  _498
REMARK  207  A    between atoms: _497  and  _500
REMARK  208  A    between atoms: _500  and  _501
REMARK  209  A    between atoms: _505  and  _506
REMARK  210  A    between atoms: _511  and  _513
REMARK  211  A    between atoms: _513  and  _514
REMARK  212  A    between atoms: _513  and  _516
REMARK  213  A    between atoms: _519  and  _521
REMARK  214  A    between atoms: _521  and  _522
REMARK  215  A    between atoms: _521  and  _524
REMARK  216  A    between atoms: _524  and  _525
REMARK  217  A    between atoms: _530  and  _532
REMARK  218  A    between atoms: _532  and  _533
REMARK  219  A    between atoms: _532  and  _535
REMARK  220  A    between atoms: _535  and  _536
REMARK  221  A    between atoms: _539  and  _541
REMARK  222  A    between atoms: _541  and  _542
REMARK  223  A    between atoms: _541  and  _544
REMARK  224  A    between atoms: _544  and  _545
REMARK  225  A    between atoms: _548  and  _550
REMARK  226  A    between atoms: _550  and  _551
REMARK  227  A    between atoms: _553  and  _555
REMARK  228  A    between atoms: _555  and  _556
REMARK  229  A    between atoms: _555  and  _558
REMARK  230  A    between atoms: _558  and  _559
REMARK  231  A    between atoms: _559  and  _560
REMARK  232  A    between atoms: _560  and  _561
REMARK  233  A    between atoms: _570  and  _572
REMARK  234  A    between atoms: _572  and  _573
REMARK  235  A    between atoms: _572  and  _575
REMARK  236  A    between atoms: _575  and  _576
REMARK                            x       y       z     vdW  Elec       q    Type
REMARK                         _______ _______ _______ _____ _____    ______ ____
ROOT
ATOM      1  O   HOH     1      22.055  15.502  19.521  0.00  0.00    +0.000 OA
ENDROOT
TORSDOF 0
REMARK  Name = ../refined-set-2016/2avq/2avq_pocket.pdb
REMARK  236 active torsions:
REMARK  status: ('A' for Active; 'I' for Inactive)
REMARK    1  A    between atoms: _1  and  _3
REMARK    2  A    between atoms: _3  and  _4
REMARK    3  A    between atoms: _3  and  _6
REMARK    4  A    between atoms: _6  and  _7
REMARK    5  A    between atoms: _7  and  _8
REMARK    6  A    between atoms: _8  and  _9
REMARK    7  A    between atoms: _18  and  _20
REMARK    8  A    between atoms: _20  and  _21
REMARK    9  A    between atoms: _20  and  _23
REMARK   10  A    between atoms: _23  and  _24
REMARK   11  A    between atoms: _27  and  _29
REMARK   12  A    between atoms: _29  and  _30
REMARK   13  A    between atoms: _29  and  _32
REMARK   14  A    between atoms: _32  and  _33
REMARK   15  A    between atoms: _36  and  _38
REMARK   16  A    between atoms: _38  and  _39
REMARK   17  A    between atoms: _38  and  _41
REMARK   18  A    between atoms: _41  and  _42
REMARK   19  A    between atoms: _45  and  _47
REMARK   20  A    between atoms: _47  and  _48
REMARK   21  A    between atoms: _47  and  _50
REMARK   22  A    between atoms: _50  and  _51
REMARK   23  A    between atoms: _54  and  _56
REMARK   24  A    between atoms: _56  and  _57
REMARK   25  A    between atoms: _56  and  _59
REMARK   26  A    between atoms: _59  and  _60
REMARK   27  A    between atoms: _63  and  _65
REMARK   28  A    between atoms: _65  and  _66
REMARK   29  A    between atoms: _68  and  _70
REMARK   30  A    between atoms: _70  and  _71
REMARK   31  A    between atoms: _74  and  _76
REMARK   32  A    between atoms: _76  and  _77
REMARK   33  A    between atoms: _76  and  _79
REMARK   34  A    between atoms: _79  and  _80
REMARK   35  A    between atoms: _83  and  _85
REMARK   36  A    between atoms: _85  and  _86
REMARK   37  A    between atoms: _85  and  _88
REMARK   38  A    between atoms: _88  and  _89
REMARK   39  A    between atoms: _92  and  _94
REMARK   40  A    between atoms: _94  and  _95
REMARK   41  A    between atoms: _94  and  _97
REMARK   42  A    between atoms: _97  and  _98
REMARK   43  A    between atoms: _101  and  _103
REMARK   44  A    between atoms: _103  and  _104
REMARK   45  A    between atoms: _103  and  _106
REMARK   46  A    between atoms: _109  and  _111
REMARK   47  A    between atoms: _111  and  _112
REMARK   48  A    between atoms: _111  and  _114
REMARK   49  A    between atoms: _114  and  _115
REMARK   50  A    between atoms: _115  and  _116
REMARK   51  A    between atoms: _116  and  _117
REMARK   52  A    between atoms: _117  and  _118
REMARK   53  A    between atoms: _122  and  _124
REMARK   54  A    between atoms: _124  and  _125
REMARK   55  A    between atoms: _124  and  _127
REMARK   56  A    between atoms: _127  and  _128
REMARK   57  A    between atoms: _128  and  _129
REMARK   58  A    between atoms: _131  and  _133
REMARK   59  A    between atoms: _133  and  _134
REMARK   60  A    between atoms: _133  and  _136
REMARK   61  A    between atoms: _136  and  _137
REMARK   62  A    between atoms: _140  and  _142
REMARK   63  A    between atoms: _142  and  _143
REMARK   64  A    between atoms: _145  and  _147
REMARK   65  A    between atoms: _147  and  _148
REMARK   66  A    between atoms: _150  and  _152
REMARK   67  A    between atoms: _152  and  _153
REMARK   68  A    between atoms: _152  and  _155
REMARK   69  A    between atoms: _158  and  _160
REMARK   70  A    between atoms: _160  and  _161
REMARK   71  A    between atoms: _163  and  _165
REMARK   72  A    between atoms: _165  and  _166
REMARK   73  A    between atoms: _168  and  _170
REMARK   74  A    between atoms: _170  and  _171
REMARK   75  A    between atoms: _170  and  _173
REMARK   76  A    between atoms: _173  and  _174
REMARK   77  A    between atoms: _180  and  _182
REMARK   78  A    between atoms: _182  and  _183
REMARK   79  A    between atoms: _182  and  _185
REMARK   80  A    between atoms: _185  and  _186
REMARK   81  A    between atoms: _189  and  _191
REMARK   82  A    between atoms: _191  and  _192
REMARK   83  A    between atoms: _191  and  _194
REMARK   84  A    between atoms: _197  and  _199
REMARK   85  A    between atoms: _199  and  _200
REMARK   86  A    between atoms: _199  and  _202
REMARK   87  A    between atoms: _202  and  _203
REMARK   88  A    between atoms: _206  and  _208
REMARK   89  A    between atoms: _208  and  _209
REMARK   90  A    between atoms: _208  and  _211
REMARK   91  A    between atoms: _211  and  _212
REMARK   92  A    between atoms: _216  and  _217
REMARK   93  A    between atoms: _222  and  _224
REMARK   94  A    between atoms: _224  and  _225
REMARK   95  A    between atoms: _224  and  _227
REMARK   96  A    between atoms: _230  and  _232
REMARK   97  A    between atoms: _232  and  _233
REMARK   98  A    between atoms: _232  and  _235
REMARK   99  A    between atoms: _235  and  _236
REMARK  100  A    between atoms: _241  and  _243
REMARK  101  A    between atoms: _243  and  _244
REMARK  102  A    between atoms: _243  and  _246
REMARK  103  A    between atoms: _246  and  _247
REMARK  104  A    between atoms: _250  and  _252
REMARK  105  A    between atoms: _252  and  _253
REMARK  106  A    between atoms: _252  and  _255
REMARK  107  A    between atoms: _255  and  _256
REMARK  108  A    between atoms: _259  and  _261
REMARK  109  A    between atoms: _261  and  _262
REMARK  110  A    between atoms: _264  and  _266
REMARK  111  A    between atoms: _266  and  _267
REMARK  112  A    between atoms: _266  and  _269
REMARK  113  A    between atoms: _269  and  _270
REMARK  114  A    between atoms: _270  and  _271
REMARK  115  A    between atoms: _271  and  _272
REMARK  116  A    between atoms: _281  and  _283
REMARK  117  A    between atoms: _283  and  _284
REMARK  118  A    between atoms: _283  and  _286
REMARK  119  A    between atoms: _286  and  _287
REMARK  120  A    between atoms: _292  and  _294
REMARK  121  A    between atoms: _294  and  _295
REMARK  122  A    between atoms: _294  and  _297
REMARK  123  A    between atoms: _297  and  _298
REMARK  124  A    between atoms: _298  and  _299
REMARK  125  A    between atoms: _299  and  _300
REMARK  126  A    between atoms: _302  and  _303
REMARK  127  A    between atoms: _309  and  _311
REMARK  128  A    between atoms: _311  and  _312
REMARK  129  A    between atoms: _311  and  _314
REMARK  130  A    between atoms: _314  and  _315
REMARK  131  A    between atoms: _318  and  _320
REMARK  132  A    between atoms: _320  and  _321
REMARK  133  A    between atoms: _320  and  _323
REMARK  134  A    between atoms: _323  and  _324
REMARK  135  A    between atoms: _327  and  _329
REMARK  136  A    between atoms: _329  and  _330
REMARK  137  A    between atoms: _329  and  _332
REMARK  138  A    between atoms: _332  and  _333
REMARK  139  A    between atoms: _336  and  _338
REMARK  140  A    between atoms: _338  and  _339
REMARK  141  A    between atoms: _338  and  _341
REMARK  142  A    between atoms: _341  and  _342
REMARK  143  A    between atoms: _345  and  _347
REMARK  144  A    between atoms: _347  and  _348
REMARK  145  A    between atoms: _350  and  _352
REMARK  146  A    between atoms: _352  and  _353
REMARK  147  A    between atoms: _356  and  _358
REMARK  148  A    between atoms: _358  and  _359
REMARK  149  A    between atoms: _358  and  _361
REMARK  150  A    between atoms: _361  and  _362
REMARK  151  A    between atoms: _365  and  _367
REMARK  152  A    between atoms: _367  and  _368
REMARK  153  A    between atoms: _367  and  _370
REMARK  154  A    between atoms: _370  and  _371
REMARK  155  A    between atoms: _374  and  _376
REMARK  156  A    between atoms: _376  and  _377
REMARK  157  A    between atoms: _376  and  _379
REMARK  158  A    between atoms: _379  and  _380
REMARK  159  A    between atoms: _383  and  _385
REMARK  160  A    between atoms: _385  and  _386
REMARK  161  A    between atoms: _385  and  _388
REMARK  162  A    between atoms: _391  and  _393
REMARK  163  A    between atoms: _393  and  _394
REMARK  164  A    between atoms: _393  and  _396
REMARK  165  A    between atoms: _396  and  _397
REMARK  166  A    between atoms: _397  and  _398
REMARK  167  A    between atoms: _398  and  _399
REMARK  168  A    between atoms: _399  and  _400
REMARK  169  A    between atoms: _404  and  _406
REMARK  170  A    between atoms: _406  and  _407
REMARK  171  A    between atoms: _406  and  _409
REMARK  172  A    between atoms: _409  and  _410
REMARK  173  A    between atoms: _410  and  _411
REMARK  174  A    between atoms: _413  and  _415
REMARK  175  A    between atoms: _415  and  _416
REMARK  176  A    between atoms: _415  and  _418
REMARK  177  A    between atoms: _418  and  _419
REMARK  178  A    between atoms: _422  and  _424
REMARK  179  A    between atoms: _424  and  _425
REMARK  180  A    between atoms: _427  and  _429
REMARK  181  A    between atoms: _429  and  _430
REMARK  182  A    between atoms: _432  and  _434
REMARK  183  A    between atoms: _434  and  _435
REMARK  184  A    between atoms: _434  and  _437
REMARK  185  A    between atoms: _440  and  _442
REMARK  186  A    between atoms: _442  and  _443
REMARK  187  A    between atoms: _445  and  _447
REMARK  188  A    between atoms: _447  and  _448
REMARK  189  A    between atoms: _450  and  _452
REMARK  190  A    between atoms: _452  and  _453
REMARK  191  A    between atoms: _452  and  _455
REMARK  192  A    between atoms: _455  and  _456
REMARK  193  A    between atoms: _462  and  _464
REMARK  194  A    between atoms: _464  and  _465
REMARK  195  A    between atoms: _464  and  _467
REMARK  196  A    between atoms: _467  and  _468
REMARK  197  A    between atoms: _471  and  _473
REMARK  198  A    between atoms: _473  and  _474
REMARK  199  A    between atoms: _473  and  _476
REMARK  200  A    between atoms: _479  and  _481
REMARK  201  A    between atoms: _481  and  _482
REMARK  202  A    between atoms: _481  and  _484
REMARK  203  A    between atoms: _484  and  _485
REMARK  204  A    between atoms: _489  and  _490
REMARK  205  A    between atoms: _495  and  _497
REMARK  206  A    between atoms: _497  and  _498
REMARK  207  A    between atoms: _497  and  _500
REMARK  208  A    between atoms: _500  and  _501
REMARK  209  A    between atoms: _505  and  _506
REMARK  210  A    between atoms: _511  and  _513
REMARK  211  A    between atoms: _513  and  _514
REMARK  212  A    between atoms: _513  and  _516
REMARK  213  A    between atoms: _519  and  _521
REMARK  214  A    between atoms: _521  and  _522
REMARK  215  A    between atoms: _521  and  _524
REMARK  216  A    between atoms: _524  and  _525
REMARK  217  A    between atoms: _530  and  _532
REMARK  218  A    between atoms: _532  and  _533
REMARK  219  A    between atoms: _532  and  _535
REMARK  220  A    between atoms: _535  and  _536
REMARK  221  A    between atoms: _539  and  _541
REMARK  222  A    between atoms: _541  and  _542
REMARK  223  A    between atoms: _541  and  _544
REMARK  224  A    between atoms: _544  and  _545
REMARK  225  A    between atoms: _548  and  _550
REMARK  226  A    between atoms: _550  and  _551
REMARK  227  A    between atoms: _553  and  _555
REMARK  228  A    between atoms: _555  and  _556
REMARK  229  A    between atoms: _555  and  _558
REMARK  230  A    between atoms: _558  and  _559
REMARK  231  A    between atoms: _559  and  _560
REMARK  232  A    between atoms: _560  and  _561
REMARK  233  A    between atoms: _570  and  _572
REMARK  234  A    between atoms: _572  and  _573
REMARK  235  A    between atoms: _572  and  _575
REMARK  236  A    between atoms: _575  and  _576
REMARK                            x       y       z     vdW  Elec       q    Type
REMARK                         _______ _______ _______ _____ _____    ______ ____
ROOT
ATOM      1  O   HOH     1      22.601  34.792  12.412  0.00  0.00    +0.000 OA
ENDROOT
TORSDOF 0
REMARK  Name = ../refined-set-2016/2avq/2avq_pocket.pdb
REMARK  236 active torsions:
REMARK  status: ('A' for Active; 'I' for Inactive)
REMARK    1  A    between atoms: _1  and  _3
REMARK    2  A    between atoms: _3  and  _4
REMARK    3  A    between atoms: _3  and  _6
REMARK    4  A    between atoms: _6  and  _7
REMARK    5  A    between atoms: _7  and  _8
REMARK    6  A    between atoms: _8  and  _9
REMARK    7  A    between atoms: _18  and  _20
REMARK    8  A    between atoms: _20  and  _21
REMARK    9  A    between atoms: _20  and  _23
REMARK   10  A    between atoms: _23  and  _24
REMARK   11  A    between atoms: _27  and  _29
REMARK   12  A    between atoms: _29  and  _30
REMARK   13  A    between atoms: _29  and  _32
REMARK   14  A    between atoms: _32  and  _33
REMARK   15  A    between atoms: _36  and  _38
REMARK   16  A    between atoms: _38  and  _39
REMARK   17  A    between atoms: _38  and  _41
REMARK   18  A    between atoms: _41  and  _42
REMARK   19  A    between atoms: _45  and  _47
REMARK   20  A    between atoms: _47  and  _48
REMARK   21  A    between atoms: _47  and  _50
REMARK   22  A    between atoms: _50  and  _51
REMARK   23  A    between atoms: _54  and  _56
REMARK   24  A    between atoms: _56  and  _57
REMARK   25  A    between atoms: _56  and  _59
REMARK   26  A    between atoms: _59  and  _60
REMARK   27  A    between atoms: _63  and  _65
REMARK   28  A    between atoms: _65  and  _66
REMARK   29  A    between atoms: _68  and  _70
REMARK   30  A    between atoms: _70  and  _71
REMARK   31  A    between atoms: _74  and  _76
REMARK   32  A    between atoms: _76  and  _77
REMARK   33  A    between atoms: _76  and  _79
REMARK   34  A    between atoms: _79  and  _80
REMARK   35  A    between atoms: _83  and  _85
REMARK   36  A    between atoms: _85  and  _86
REMARK   37  A    between atoms: _85  and  _88
REMARK   38  A    between atoms: _88  and  _89
REMARK   39  A    between atoms: _92  and  _94
REMARK   40  A    between atoms: _94  and  _95
REMARK   41  A    between atoms: _94  and  _97
REMARK   42  A    between atoms: _97  and  _98
REMARK   43  A    between atoms: _101  and  _103
REMARK   44  A    between atoms: _103  and  _104
REMARK   45  A    between atoms: _103  and  _106
REMARK   46  A    between atoms: _109  and  _111
REMARK   47  A    between atoms: _111  and  _112
REMARK   48  A    between atoms: _111  and  _114
REMARK   49  A    between atoms: _114  and  _115
REMARK   50  A    between atoms: _115  and  _116
REMARK   51  A    between atoms: _116  and  _117
REMARK   52  A    between atoms: _117  and  _118
REMARK   53  A    between atoms: _122  and  _124
REMARK   54  A    between atoms: _124  and  _125
REMARK   55  A    between atoms: _124  and  _127
REMARK   56  A    between atoms: _127  and  _128
REMARK   57  A    between atoms: _128  and  _129
REMARK   58  A    between atoms: _131  and  _133
REMARK   59  A    between atoms: _133  and  _134
REMARK   60  A    between atoms: _133  and  _136
REMARK   61  A    between atoms: _136  and  _137
REMARK   62  A    between atoms: _140  and  _142
REMARK   63  A    between atoms: _142  and  _143
REMARK   64  A    between atoms: _145  and  _147
REMARK   65  A    between atoms: _147  and  _148
REMARK   66  A    between atoms: _150  and  _152
REMARK   67  A    between atoms: _152  and  _153
REMARK   68  A    between atoms: _152  and  _155
REMARK   69  A    between atoms: _158  and  _160
REMARK   70  A    between atoms: _160  and  _161
REMARK   71  A    between atoms: _163  and  _165
REMARK   72  A    between atoms: _165  and  _166
REMARK   73  A    between atoms: _168  and  _170
REMARK   74  A    between atoms: _170  and  _171
REMARK   75  A    between atoms: _170  and  _173
REMARK   76  A    between atoms: _173  and  _174
REMARK   77  A    between atoms: _180  and  _182
REMARK   78  A    between atoms: _182  and  _183
REMARK   79  A    between atoms: _182  and  _185
REMARK   80  A    between atoms: _185  and  _186
REMARK   81  A    between atoms: _189  and  _191
REMARK   82  A    between atoms: _191  and  _192
REMARK   83  A    between atoms: _191  and  _194
REMARK   84  A    between atoms: _197  and  _199
REMARK   85  A    between atoms: _199  and  _200
REMARK   86  A    between atoms: _199  and  _202
REMARK   87  A    between atoms: _202  and  _203
REMARK   88  A    between atoms: _206  and  _208
REMARK   89  A    between atoms: _208  and  _209
REMARK   90  A    between atoms: _208  and  _211
REMARK   91  A    between atoms: _211  and  _212
REMARK   92  A    between atoms: _216  and  _217
REMARK   93  A    between atoms: _222  and  _224
REMARK   94  A    between atoms: _224  and  _225
REMARK   95  A    between atoms: _224  and  _227
REMARK   96  A    between atoms: _230  and  _232
REMARK   97  A    between atoms: _232  and  _233
REMARK   98  A    between atoms: _232  and  _235
REMARK   99  A    between atoms: _235  and  _236
REMARK  100  A    between atoms: _241  and  _243
REMARK  101  A    between atoms: _243  and  _244
REMARK  102  A    between atoms: _243  and  _246
REMARK  103  A    between atoms: _246  and  _247
REMARK  104  A    between atoms: _250  and  _252
REMARK  105  A    between atoms: _252  and  _253
REMARK  106  A    between atoms: _252  and  _255
REMARK  107  A    between atoms: _255  and  _256
REMARK  108  A    between atoms: _259  and  _261
REMARK  109  A    between atoms: _261  and  _262
REMARK  110  A    between atoms: _264  and  _266
REMARK  111  A    between atoms: _266  and  _267
REMARK  112  A    between atoms: _266  and  _269
REMARK  113  A    between atoms: _269  and  _270
REMARK  114  A    between atoms: _270  and  _271
REMARK  115  A    between atoms: _271  and  _272
REMARK  116  A    between atoms: _281  and  _283
REMARK  117  A    between atoms: _283  and  _284
REMARK  118  A    between atoms: _283  and  _286
REMARK  119  A    between atoms: _286  and  _287
REMARK  120  A    between atoms: _292  and  _294
REMARK  121  A    between atoms: _294  and  _295
REMARK  122  A    between atoms: _294  and  _297
REMARK  123  A    between atoms: _297  and  _298
REMARK  124  A    between atoms: _298  and  _299
REMARK  125  A    between atoms: _299  and  _300
REMARK  126  A    between atoms: _302  and  _303
REMARK  127  A    between atoms: _309  and  _311
REMARK  128  A    between atoms: _311  and  _312
REMARK  129  A    between atoms: _311  and  _314
REMARK  130  A    between atoms: _314  and  _315
REMARK  131  A    between atoms: _318  and  _320
REMARK  132  A    between atoms: _320  and  _321
REMARK  133  A    between atoms: _320  and  _323
REMARK  134  A    between atoms: _323  and  _324
REMARK  135  A    between atoms: _327  and  _329
REMARK  136  A    between atoms: _329  and  _330
REMARK  137  A    between atoms: _329  and  _332
REMARK  138  A    between atoms: _332  and  _333
REMARK  139  A    between atoms: _336  and  _338
REMARK  140  A    between atoms: _338  and  _339
REMARK  141  A    between atoms: _338  and  _341
REMARK  142  A    between atoms: _341  and  _342
REMARK  143  A    between atoms: _345  and  _347
REMARK  144  A    between atoms: _347  and  _348
REMARK  145  A    between atoms: _350  and  _352
REMARK  146  A    between atoms: _352  and  _353
REMARK  147  A    between atoms: _356  and  _358
REMARK  148  A    between atoms: _358  and  _359
REMARK  149  A    between atoms: _358  and  _361
REMARK  150  A    between atoms: _361  and  _362
REMARK  151  A    between atoms: _365  and  _367
REMARK  152  A    between atoms: _367  and  _368
REMARK  153  A    between atoms: _367  and  _370
REMARK  154  A    between atoms: _370  and  _371
REMARK  155  A    between atoms: _374  and  _376
REMARK  156  A    between atoms: _376  and  _377
REMARK  157  A    between atoms: _376  and  _379
REMARK  158  A    between atoms: _379  and  _380
REMARK  159  A    between atoms: _383  and  _385
REMARK  160  A    between atoms: _385  and  _386
REMARK  161  A    between atoms: _385  and  _388
REMARK  162  A    between atoms: _391  and  _393
REMARK  163  A    between atoms: _393  and  _394
REMARK  164  A    between atoms: _393  and  _396
REMARK  165  A    between atoms: _396  and  _397
REMARK  166  A    between atoms: _397  and  _398
REMARK  167  A    between atoms: _398  and  _399
REMARK  168  A    between atoms: _399  and  _400
REMARK  169  A    between atoms: _404  and  _406
REMARK  170  A    between atoms: _406  and  _407
REMARK  171  A    between atoms: _406  and  _409
REMARK  172  A    between atoms: _409  and  _410
REMARK  173  A    between atoms: _410  and  _411
REMARK  174  A    between atoms: _413  and  _415
REMARK  175  A    between atoms: _415  and  _416
REMARK  176  A    between atoms: _415  and  _418
REMARK  177  A    between atoms: _418  and  _419
REMARK  178  A    between atoms: _422  and  _424
REMARK  179  A    between atoms: _424  and  _425
REMARK  180  A    between atoms: _427  and  _429
REMARK  181  A    between atoms: _429  and  _430
REMARK  182  A    between atoms: _432  and  _434
REMARK  183  A    between atoms: _434  and  _435
REMARK  184  A    between atoms: _434  and  _437
REMARK  185  A    between atoms: _440  and  _442
REMARK  186  A    between atoms: _442  and  _443
REMARK  187  A    between atoms: _445  and  _447
REMARK  188  A    between atoms: _447  and  _448
REMARK  189  A    between atoms: _450  and  _452
REMARK  190  A    between atoms: _452  and  _453
REMARK  191  A    between atoms: _452  and  _455
REMARK  192  A    between atoms: _455  and  _456
REMARK  193  A    between atoms: _462  and  _464
REMARK  194  A    between atoms: _464  and  _465
REMARK  195  A    between atoms: _464  and  _467
REMARK  196  A    between atoms: _467  and  _468
REMARK  197  A    between atoms: _471  and  _473
REMARK  198  A    between atoms: _473  and  _474
REMARK  199  A    between atoms: _473  and  _476
REMARK  200  A    between atoms: _479  and  _481
REMARK  201  A    between atoms: _481  and  _482
REMARK  202  A    between atoms: _481  and  _484
REMARK  203  A    between atoms: _484  and  _485
REMARK  204  A    between atoms: _489  and  _490
REMARK  205  A    between atoms: _495  and  _497
REMARK  206  A    between atoms: _497  and  _498
REMARK  207  A    between atoms: _497  and  _500
REMARK  208  A    between atoms: _500  and  _501
REMARK  209  A    between atoms: _505  and  _506
REMARK  210  A    between atoms: _511  and  _513
REMARK  211  A    between atoms: _513  and  _514
REMARK  212  A    between atoms: _513  and  _516
REMARK  213  A    between atoms: _519  and  _521
REMARK  214  A    between atoms: _521  and  _522
REMARK  215  A    between atoms: _521  and  _524
REMARK  216  A    between atoms: _524  and  _525
REMARK  217  A    between atoms: _530  and  _532
REMARK  218  A    between atoms: _532  and  _533
REMARK  219  A    between atoms: _532  and  _535
REMARK  220  A    between atoms: _535  and  _536
REMARK  221  A    between atoms: _539  and  _541
REMARK  222  A    between atoms: _541  and  _542
REMARK  223  A    between atoms: _541  and  _544
REMARK  224  A    between atoms: _544  and  _545
REMARK  225  A    between atoms: _548  and  _550
REMARK  226  A    between atoms: _550  and  _551
REMARK  227  A    between atoms: _553  and  _555
REMARK  228  A    between atoms: _555  and  _556
REMARK  229  A    between atoms: _555  and  _558
REMARK  230  A    between atoms: _558  and  _559
REMARK  231  A    between atoms: _559  and  _560
REMARK  232  A    between atoms: _560  and  _561
REMARK  233  A    between atoms: _570  and  _572
REMARK  234  A    between atoms: _572  and  _573
REMARK  235  A    between atoms: _572  and  _575
REMARK  236  A    between atoms: _575  and  _576
REMARK                            x       y       z     vdW  Elec       q    Type
REMARK                         _______ _______ _______ _____ _____    ______ ____
ROOT
ATOM      1  O   HOH     1      30.425  30.880  14.276  0.00  0.00    +0.000 OA
ENDROOT
TORSDOF 0
REMARK  Name = ../refined-set-2016/2avq/2avq_pocket.pdb
REMARK  236 active torsions:
REMARK  status: ('A' for Active; 'I' for Inactive)
REMARK    1  A    between atoms: _1  and  _3
REMARK    2  A    between atoms: _3  and  _4
REMARK    3  A    between atoms: _3  and  _6
REMARK    4  A    between atoms: _6  and  _7
REMARK    5  A    between atoms: _7  and  _8
REMARK    6  A    between atoms: _8  and  _9
REMARK    7  A    between atoms: _18  and  _20
REMARK    8  A    between atoms: _20  and  _21
REMARK    9  A    between atoms: _20  and  _23
REMARK   10  A    between atoms: _23  and  _24
REMARK   11  A    between atoms: _27  and  _29
REMARK   12  A    between atoms: _29  and  _30
REMARK   13  A    between atoms: _29  and  _32
REMARK   14  A    between atoms: _32  and  _33
REMARK   15  A    between atoms: _36  and  _38
REMARK   16  A    between atoms: _38  and  _39
REMARK   17  A    between atoms: _38  and  _41
REMARK   18  A    between atoms: _41  and  _42
REMARK   19  A    between atoms: _45  and  _47
REMARK   20  A    between atoms: _47  and  _48
REMARK   21  A    between atoms: _47  and  _50
REMARK   22  A    between atoms: _50  and  _51
REMARK   23  A    between atoms: _54  and  _56
REMARK   24  A    between atoms: _56  and  _57
REMARK   25  A    between atoms: _56  and  _59
REMARK   26  A    between atoms: _59  and  _60
REMARK   27  A    between atoms: _63  and  _65
REMARK   28  A    between atoms: _65  and  _66
REMARK   29  A    between atoms: _68  and  _70
REMARK   30  A    between atoms: _70  and  _71
REMARK   31  A    between atoms: _74  and  _76
REMARK   32  A    between atoms: _76  and  _77
REMARK   33  A    between atoms: _76  and  _79
REMARK   34  A    between atoms: _79  and  _80
REMARK   35  A    between atoms: _83  and  _85
REMARK   36  A    between atoms: _85  and  _86
REMARK   37  A    between atoms: _85  and  _88
REMARK   38  A    between atoms: _88  and  _89
REMARK   39  A    between atoms: _92  and  _94
REMARK   40  A    between atoms: _94  and  _95
REMARK   41  A    between atoms: _94  and  _97
REMARK   42  A    between atoms: _97  and  _98
REMARK   43  A    between atoms: _101  and  _103
REMARK   44  A    between atoms: _103  and  _104
REMARK   45  A    between atoms: _103  and  _106
REMARK   46  A    between atoms: _109  and  _111
REMARK   47  A    between atoms: _111  and  _112
REMARK   48  A    between atoms: _111  and  _114
REMARK   49  A    between atoms: _114  and  _115
REMARK   50  A    between atoms: _115  and  _116
REMARK   51  A    between atoms: _116  and  _117
REMARK   52  A    between atoms: _117  and  _118
REMARK   53  A    between atoms: _122  and  _124
REMARK   54  A    between atoms: _124  and  _125
REMARK   55  A    between atoms: _124  and  _127
REMARK   56  A    between atoms: _127  and  _128
REMARK   57  A    between atoms: _128  and  _129
REMARK   58  A    between atoms: _131  and  _133
REMARK   59  A    between atoms: _133  and  _134
REMARK   60  A    between atoms: _133  and  _136
REMARK   61  A    between atoms: _136  and  _137
REMARK   62  A    between atoms: _140  and  _142
REMARK   63  A    between atoms: _142  and  _143
REMARK   64  A    between atoms: _145  and  _147
REMARK   65  A    between atoms: _147  and  _148
REMARK   66  A    between atoms: _150  and  _152
REMARK   67  A    between atoms: _152  and  _153
REMARK   68  A    between atoms: _152  and  _155
REMARK   69  A    between atoms: _158  and  _160
REMARK   70  A    between atoms: _160  and  _161
REMARK   71  A    between atoms: _163  and  _165
REMARK   72  A    between atoms: _165  and  _166
REMARK   73  A    between atoms: _168  and  _170
REMARK   74  A    between atoms: _170  and  _171
REMARK   75  A    between atoms: _170  and  _173
REMARK   76  A    between atoms: _173  and  _174
REMARK   77  A    between atoms: _180  and  _182
REMARK   78  A    between atoms: _182  and  _183
REMARK   79  A    between atoms: _182  and  _185
REMARK   80  A    between atoms: _185  and  _186
REMARK   81  A    between atoms: _189  and  _191
REMARK   82  A    between atoms: _191  and  _192
REMARK   83  A    between atoms: _191  and  _194
REMARK   84  A    between atoms: _197  and  _199
REMARK   85  A    between atoms: _199  and  _200
REMARK   86  A    between atoms: _199  and  _202
REMARK   87  A    between atoms: _202  and  _203
REMARK   88  A    between atoms: _206  and  _208
REMARK   89  A    between atoms: _208  and  _209
REMARK   90  A    between atoms: _208  and  _211
REMARK   91  A    between atoms: _211  and  _212
REMARK   92  A    between atoms: _216  and  _217
REMARK   93  A    between atoms: _222  and  _224
REMARK   94  A    between atoms: _224  and  _225
REMARK   95  A    between atoms: _224  and  _227
REMARK   96  A    between atoms: _230  and  _232
REMARK   97  A    between atoms: _232  and  _233
REMARK   98  A    between atoms: _232  and  _235
REMARK   99  A    between atoms: _235  and  _236
REMARK  100  A    between atoms: _241  and  _243
REMARK  101  A    between atoms: _243  and  _244
REMARK  102  A    between atoms: _243  and  _246
REMARK  103  A    between atoms: _246  and  _247
REMARK  104  A    between atoms: _250  and  _252
REMARK  105  A    between atoms: _252  and  _253
REMARK  106  A    between atoms: _252  and  _255
REMARK  107  A    between atoms: _255  and  _256
REMARK  108  A    between atoms: _259  and  _261
REMARK  109  A    between atoms: _261  and  _262
REMARK  110  A    between atoms: _264  and  _266
REMARK  111  A    between atoms: _266  and  _267
REMARK  112  A    between atoms: _266  and  _269
REMARK  113  A    between atoms: _269  and  _270
REMARK  114  A    between atoms: _270  and  _271
REMARK  115  A    between atoms: _271  and  _272
REMARK  116  A    between atoms: _281  and  _283
REMARK  117  A    between atoms: _283  and  _284
REMARK  118  A    between atoms: _283  and  _286
REMARK  119  A    between atoms: _286  and  _287
REMARK  120  A    between atoms: _292  and  _294
REMARK  121  A    between atoms: _294  and  _295
REMARK  122  A    between atoms: _294  and  _297
REMARK  123  A    between atoms: _297  and  _298
REMARK  124  A    between atoms: _298  and  _299
REMARK  125  A    between atoms: _299  and  _300
REMARK  126  A    between atoms: _302  and  _303
REMARK  127  A    between atoms: _309  and  _311
REMARK  128  A    between atoms: _311  and  _312
REMARK  129  A    between atoms: _311  and  _314
REMARK  130  A    between atoms: _314  and  _315
REMARK  131  A    between atoms: _318  and  _320
REMARK  132  A    between atoms: _320  and  _321
REMARK  133  A    between atoms: _320  and  _323
REMARK  134  A    between atoms: _323  and  _324
REMARK  135  A    between atoms: _327  and  _329
REMARK  136  A    between atoms: _329  and  _330
REMARK  137  A    between atoms: _329  and  _332
REMARK  138  A    between atoms: _332  and  _333
REMARK  139  A    between atoms: _336  and  _338
REMARK  140  A    between atoms: _338  and  _339
REMARK  141  A    between atoms: _338  and  _341
REMARK  142  A    between atoms: _341  and  _342
REMARK  143  A    between atoms: _345  and  _347
REMARK  144  A    between atoms: _347  and  _348
REMARK  145  A    between atoms: _350  and  _352
REMARK  146  A    between atoms: _352  and  _353
REMARK  147  A    between atoms: _356  and  _358
REMARK  148  A    between atoms: _358  and  _359
REMARK  149  A    between atoms: _358  and  _361
REMARK  150  A    between atoms: _361  and  _362
REMARK  151  A    between atoms: _365  and  _367
REMARK  152  A    between atoms: _367  and  _368
REMARK  153  A    between atoms: _367  and  _370
REMARK  154  A    between atoms: _370  and  _371
REMARK  155  A    between atoms: _374  and  _376
REMARK  156  A    between atoms: _376  and  _377
REMARK  157  A    between atoms: _376  and  _379
REMARK  158  A    between atoms: _379  and  _380
REMARK  159  A    between atoms: _383  and  _385
REMARK  160  A    between atoms: _385  and  _386
REMARK  161  A    between atoms: _385  and  _388
REMARK  162  A    between atoms: _391  and  _393
REMARK  163  A    between atoms: _393  and  _394
REMARK  164  A    between atoms: _393  and  _396
REMARK  165  A    between atoms: _396  and  _397
REMARK  166  A    between atoms: _397  and  _398
REMARK  167  A    between atoms: _398  and  _399
REMARK  168  A    between atoms: _399  and  _400
REMARK  169  A    between atoms: _404  and  _406
REMARK  170  A    between atoms: _406  and  _407
REMARK  171  A    between atoms: _406  and  _409
REMARK  172  A    between atoms: _409  and  _410
REMARK  173  A    between atoms: _410  and  _411
REMARK  174  A    between atoms: _413  and  _415
REMARK  175  A    between atoms: _415  and  _416
REMARK  176  A    between atoms: _415  and  _418
REMARK  177  A    between atoms: _418  and  _419
REMARK  178  A    between atoms: _422  and  _424
REMARK  179  A    between atoms: _424  and  _425
REMARK  180  A    between atoms: _427  and  _429
REMARK  181  A    between atoms: _429  and  _430
REMARK  182  A    between atoms: _432  and  _434
REMARK  183  A    between atoms: _434  and  _435
REMARK  184  A    between atoms: _434  and  _437
REMARK  185  A    between atoms: _440  and  _442
REMARK  186  A    between atoms: _442  and  _443
REMARK  187  A    between atoms: _445  and  _447
REMARK  188  A    between atoms: _447  and  _448
REMARK  189  A    between atoms: _450  and  _452
REMARK  190  A    between atoms: _452  and  _453
REMARK  191  A    between atoms: _452  and  _455
REMARK  192  A    between atoms: _455  and  _456
REMARK  193  A    between atoms: _462  and  _464
REMARK  194  A    between atoms: _464  and  _465
REMARK  195  A    between atoms: _464  and  _467
REMARK  196  A    between atoms: _467  and  _468
REMARK  197  A    between atoms: _471  and  _473
REMARK  198  A    between atoms: _473  and  _474
REMARK  199  A    between atoms: _473  and  _476
REMARK  200  A    between atoms: _479  and  _481
REMARK  201  A    between atoms: _481  and  _482
REMARK  202  A    between atoms: _481  and  _484
REMARK  203  A    between atoms: _484  and  _485
REMARK  204  A    between atoms: _489  and  _490
REMARK  205  A    between atoms: _495  and  _497
REMARK  206  A    between atoms: _497  and  _498
REMARK  207  A    between atoms: _497  and  _500
REMARK  208  A    between atoms: _500  and  _501
REMARK  209  A    between atoms: _505  and  _506
REMARK  210  A    between atoms: _511  and  _513
REMARK  211  A    between atoms: _513  and  _514
REMARK  212  A    between atoms: _513  and  _516
REMARK  213  A    between atoms: _519  and  _521
REMARK  214  A    between atoms: _521  and  _522
REMARK  215  A    between atoms: _521  and  _524
REMARK  216  A    between atoms: _524  and  _525
REMARK  217  A    between atoms: _530  and  _532
REMARK  218  A    between atoms: _532  and  _533
REMARK  219  A    between atoms: _532  and  _535
REMARK  220  A    between atoms: _535  and  _536
REMARK  221  A    between atoms: _539  and  _541
REMARK  222  A    between atoms: _541  and  _542
REMARK  223  A    between atoms: _541  and  _544
REMARK  224  A    between atoms: _544  and  _545
REMARK  225  A    between atoms: _548  and  _550
REMARK  226  A    between atoms: _550  and  _551
REMARK  227  A    between atoms: _553  and  _555
REMARK  228  A    between atoms: _555  and  _556
REMARK  229  A    between atoms: _555  and  _558
REMARK  230  A    between atoms: _558  and  _559
REMARK  231  A    between atoms: _559  and  _560
REMARK  232  A    between atoms: _560  and  _561
REMARK  233  A    between atoms: _570  and  _572
REMARK  234  A    between atoms: _572  and  _573
REMARK  235  A    between atoms: _572  and  _575
REMARK  236  A    between atoms: _575  and  _576
REMARK                            x       y       z     vdW  Elec       q    Type
REMARK                         _______ _______ _______ _____ _____    ______ ____
ROOT
ATOM      1  O   HOH     1       7.228  23.261   9.015  0.00  0.00    +0.000 OA
ENDROOT
TORSDOF 0
REMARK  Name = ../refined-set-2016/2avq/2avq_pocket.pdb
REMARK  236 active torsions:
REMARK  status: ('A' for Active; 'I' for Inactive)
REMARK    1  A    between atoms: _1  and  _3
REMARK    2  A    between atoms: _3  and  _4
REMARK    3  A    between atoms: _3  and  _6
REMARK    4  A    between atoms: _6  and  _7
REMARK    5  A    between atoms: _7  and  _8
REMARK    6  A    between atoms: _8  and  _9
REMARK    7  A    between atoms: _18  and  _20
REMARK    8  A    between atoms: _20  and  _21
REMARK    9  A    between atoms: _20  and  _23
REMARK   10  A    between atoms: _23  and  _24
REMARK   11  A    between atoms: _27  and  _29
REMARK   12  A    between atoms: _29  and  _30
REMARK   13  A    between atoms: _29  and  _32
REMARK   14  A    between atoms: _32  and  _33
REMARK   15  A    between atoms: _36  and  _38
REMARK   16  A    between atoms: _38  and  _39
REMARK   17  A    between atoms: _38  and  _41
REMARK   18  A    between atoms: _41  and  _42
REMARK   19  A    between atoms: _45  and  _47
REMARK   20  A    between atoms: _47  and  _48
REMARK   21  A    between atoms: _47  and  _50
REMARK   22  A    between atoms: _50  and  _51
REMARK   23  A    between atoms: _54  and  _56
REMARK   24  A    between atoms: _56  and  _57
REMARK   25  A    between atoms: _56  and  _59
REMARK   26  A    between atoms: _59  and  _60
REMARK   27  A    between atoms: _63  and  _65
REMARK   28  A    between atoms: _65  and  _66
REMARK   29  A    between atoms: _68  and  _70
REMARK   30  A    between atoms: _70  and  _71
REMARK   31  A    between atoms: _74  and  _76
REMARK   32  A    between atoms: _76  and  _77
REMARK   33  A    between atoms: _76  and  _79
REMARK   34  A    between atoms: _79  and  _80
REMARK   35  A    between atoms: _83  and  _85
REMARK   36  A    between atoms: _85  and  _86
REMARK   37  A    between atoms: _85  and  _88
REMARK   38  A    between atoms: _88  and  _89
REMARK   39  A    between atoms: _92  and  _94
REMARK   40  A    between atoms: _94  and  _95
REMARK   41  A    between atoms: _94  and  _97
REMARK   42  A    between atoms: _97  and  _98
REMARK   43  A    between atoms: _101  and  _103
REMARK   44  A    between atoms: _103  and  _104
REMARK   45  A    between atoms: _103  and  _106
REMARK   46  A    between atoms: _109  and  _111
REMARK   47  A    between atoms: _111  and  _112
REMARK   48  A    between atoms: _111  and  _114
REMARK   49  A    between atoms: _114  and  _115
REMARK   50  A    between atoms: _115  and  _116
REMARK   51  A    between atoms: _116  and  _117
REMARK   52  A    between atoms: _117  and  _118
REMARK   53  A    between atoms: _122  and  _124
REMARK   54  A    between atoms: _124  and  _125
REMARK   55  A    between atoms: _124  and  _127
REMARK   56  A    between atoms: _127  and  _128
REMARK   57  A    between atoms: _128  and  _129
REMARK   58  A    between atoms: _131  and  _133
REMARK   59  A    between atoms: _133  and  _134
REMARK   60  A    between atoms: _133  and  _136
REMARK   61  A    between atoms: _136  and  _137
REMARK   62  A    between atoms: _140  and  _142
REMARK   63  A    between atoms: _142  and  _143
REMARK   64  A    between atoms: _145  and  _147
REMARK   65  A    between atoms: _147  and  _148
REMARK   66  A    between atoms: _150  and  _152
REMARK   67  A    between atoms: _152  and  _153
REMARK   68  A    between atoms: _152  and  _155
REMARK   69  A    between atoms: _158  and  _160
REMARK   70  A    between atoms: _160  and  _161
REMARK   71  A    between atoms: _163  and  _165
REMARK   72  A    between atoms: _165  and  _166
REMARK   73  A    between atoms: _168  and  _170
REMARK   74  A    between atoms: _170  and  _171
REMARK   75  A    between atoms: _170  and  _173
REMARK   76  A    between atoms: _173  and  _174
REMARK   77  A    between atoms: _180  and  _182
REMARK   78  A    between atoms: _182  and  _183
REMARK   79  A    between atoms: _182  and  _185
REMARK   80  A    between atoms: _185  and  _186
REMARK   81  A    between atoms: _189  and  _191
REMARK   82  A    between atoms: _191  and  _192
REMARK   83  A    between atoms: _191  and  _194
REMARK   84  A    between atoms: _197  and  _199
REMARK   85  A    between atoms: _199  and  _200
REMARK   86  A    between atoms: _199  and  _202
REMARK   87  A    between atoms: _202  and  _203
REMARK   88  A    between atoms: _206  and  _208
REMARK   89  A    between atoms: _208  and  _209
REMARK   90  A    between atoms: _208  and  _211
REMARK   91  A    between atoms: _211  and  _212
REMARK   92  A    between atoms: _216  and  _217
REMARK   93  A    between atoms: _222  and  _224
REMARK   94  A    between atoms: _224  and  _225
REMARK   95  A    between atoms: _224  and  _227
REMARK   96  A    between atoms: _230  and  _232
REMARK   97  A    between atoms: _232  and  _233
REMARK   98  A    between atoms: _232  and  _235
REMARK   99  A    between atoms: _235  and  _236
REMARK  100  A    between atoms: _241  and  _243
REMARK  101  A    between atoms: _243  and  _244
REMARK  102  A    between atoms: _243  and  _246
REMARK  103  A    between atoms: _246  and  _247
REMARK  104  A    between atoms: _250  and  _252
REMARK  105  A    between atoms: _252  and  _253
REMARK  106  A    between atoms: _252  and  _255
REMARK  107  A    between atoms: _255  and  _256
REMARK  108  A    between atoms: _259  and  _261
REMARK  109  A    between atoms: _261  and  _262
REMARK  110  A    between atoms: _264  and  _266
REMARK  111  A    between atoms: _266  and  _267
REMARK  112  A    between atoms: _266  and  _269
REMARK  113  A    between atoms: _269  and  _270
REMARK  114  A    between atoms: _270  and  _271
REMARK  115  A    between atoms: _271  and  _272
REMARK  116  A    between atoms: _281  and  _283
REMARK  117  A    between atoms: _283  and  _284
REMARK  118  A    between atoms: _283  and  _286
REMARK  119  A    between atoms: _286  and  _287
REMARK  120  A    between atoms: _292  and  _294
REMARK  121  A    between atoms: _294  and  _295
REMARK  122  A    between atoms: _294  and  _297
REMARK  123  A    between atoms: _297  and  _298
REMARK  124  A    between atoms: _298  and  _299
REMARK  125  A    between atoms: _299  and  _300
REMARK  126  A    between atoms: _302  and  _303
REMARK  127  A    between atoms: _309  and  _311
REMARK  128  A    between atoms: _311  and  _312
REMARK  129  A    between atoms: _311  and  _314
REMARK  130  A    between atoms: _314  and  _315
REMARK  131  A    between atoms: _318  and  _320
REMARK  132  A    between atoms: _320  and  _321
REMARK  133  A    between atoms: _320  and  _323
REMARK  134  A    between atoms: _323  and  _324
REMARK  135  A    between atoms: _327  and  _329
REMARK  136  A    between atoms: _329  and  _330
REMARK  137  A    between atoms: _329  and  _332
REMARK  138  A    between atoms: _332  and  _333
REMARK  139  A    between atoms: _336  and  _338
REMARK  140  A    between atoms: _338  and  _339
REMARK  141  A    between atoms: _338  and  _341
REMARK  142  A    between atoms: _341  and  _342
REMARK  143  A    between atoms: _345  and  _347
REMARK  144  A    between atoms: _347  and  _348
REMARK  145  A    between atoms: _350  and  _352
REMARK  146  A    between atoms: _352  and  _353
REMARK  147  A    between atoms: _356  and  _358
REMARK  148  A    between atoms: _358  and  _359
REMARK  149  A    between atoms: _358  and  _361
REMARK  150  A    between atoms: _361  and  _362
REMARK  151  A    between atoms: _365  and  _367
REMARK  152  A    between atoms: _367  and  _368
REMARK  153  A    between atoms: _367  and  _370
REMARK  154  A    between atoms: _370  and  _371
REMARK  155  A    between atoms: _374  and  _376
REMARK  156  A    between atoms: _376  and  _377
REMARK  157  A    between atoms: _376  and  _379
REMARK  158  A    between atoms: _379  and  _380
REMARK  159  A    between atoms: _383  and  _385
REMARK  160  A    between atoms: _385  and  _386
REMARK  161  A    between atoms: _385  and  _388
REMARK  162  A    between atoms: _391  and  _393
REMARK  163  A    between atoms: _393  and  _394
REMARK  164  A    between atoms: _393  and  _396
REMARK  165  A    between atoms: _396  and  _397
REMARK  166  A    between atoms: _397  and  _398
REMARK  167  A    between atoms: _398  and  _399
REMARK  168  A    between atoms: _399  and  _400
REMARK  169  A    between atoms: _404  and  _406
REMARK  170  A    between atoms: _406  and  _407
REMARK  171  A    between atoms: _406  and  _409
REMARK  172  A    between atoms: _409  and  _410
REMARK  173  A    between atoms: _410  and  _411
REMARK  174  A    between atoms: _413  and  _415
REMARK  175  A    between atoms: _415  and  _416
REMARK  176  A    between atoms: _415  and  _418
REMARK  177  A    between atoms: _418  and  _419
REMARK  178  A    between atoms: _422  and  _424
REMARK  179  A    between atoms: _424  and  _425
REMARK  180  A    between atoms: _427  and  _429
REMARK  181  A    between atoms: _429  and  _430
REMARK  182  A    between atoms: _432  and  _434
REMARK  183  A    between atoms: _434  and  _435
REMARK  184  A    between atoms: _434  and  _437
REMARK  185  A    between atoms: _440  and  _442
REMARK  186  A    between atoms: _442  and  _443
REMARK  187  A    between atoms: _445  and  _447
REMARK  188  A    between atoms: _447  and  _448
REMARK  189  A    between atoms: _450  and  _452
REMARK  190  A    between atoms: _452  and  _453
REMARK  191  A    between atoms: _452  and  _455
REMARK  192  A    between atoms: _455  and  _456
REMARK  193  A    between atoms: _462  and  _464
REMARK  194  A    between atoms: _464  and  _465
REMARK  195  A    between atoms: _464  and  _467
REMARK  196  A    between atoms: _467  and  _468
REMARK  197  A    between atoms: _471  and  _473
REMARK  198  A    between atoms: _473  and  _474
REMARK  199  A    between atoms: _473  and  _476
REMARK  200  A    between atoms: _479  and  _481
REMARK  201  A    between atoms: _481  and  _482
REMARK  202  A    between atoms: _481  and  _484
REMARK  203  A    between atoms: _484  and  _485
REMARK  204  A    between atoms: _489  and  _490
REMARK  205  A    between atoms: _495  and  _497
REMARK  206  A    between atoms: _497  and  _498
REMARK  207  A    between atoms: _497  and  _500
REMARK  208  A    between atoms: _500  and  _501
REMARK  209  A    between atoms: _505  and  _506
REMARK  210  A    between atoms: _511  and  _513
REMARK  211  A    between atoms: _513  and  _514
REMARK  212  A    between atoms: _513  and  _516
REMARK  213  A    between atoms: _519  and  _521
REMARK  214  A    between atoms: _521  and  _522
REMARK  215  A    between atoms: _521  and  _524
REMARK  216  A    between atoms: _524  and  _525
REMARK  217  A    between atoms: _530  and  _532
REMARK  218  A    between atoms: _532  and  _533
REMARK  219  A    between atoms: _532  and  _535
REMARK  220  A    between atoms: _535  and  _536
REMARK  221  A    between atoms: _539  and  _541
REMARK  222  A    between atoms: _541  and  _542
REMARK  223  A    between atoms: _541  and  _544
REMARK  224  A    between atoms: _544  and  _545
REMARK  225  A    between atoms: _548  and  _550
REMARK  226  A    between atoms: _550  and  _551
REMARK  227  A    between atoms: _553  and  _555
REMARK  228  A    between atoms: _555  and  _556
REMARK  229  A    between atoms: _555  and  _558
REMARK  230  A    between atoms: _558  and  _559
REMARK  231  A    between atoms: _559  and  _560
REMARK  232  A    between atoms: _560  and  _561
REMARK  233  A    between atoms: _570  and  _572
REMARK  234  A    between atoms: _572  and  _573
REMARK  235  A    between atoms: _572  and  _575
REMARK  236  A    between atoms: _575  and  _576
REMARK                            x       y       z     vdW  Elec       q    Type
REMARK                         _______ _______ _______ _____ _____    ______ ____
ROOT
ATOM      1  O   HOH     1       1.660  21.585  16.301  0.00  0.00    +0.000 OA
ENDROOT
TORSDOF 0
REMARK  Name = ../refined-set-2016/2avq/2avq_pocket.pdb
REMARK  236 active torsions:
REMARK  status: ('A' for Active; 'I' for Inactive)
REMARK    1  A    between atoms: _1  and  _3
REMARK    2  A    between atoms: _3  and  _4
REMARK    3  A    between atoms: _3  and  _6
REMARK    4  A    between atoms: _6  and  _7
REMARK    5  A    between atoms: _7  and  _8
REMARK    6  A    between atoms: _8  and  _9
REMARK    7  A    between atoms: _18  and  _20
REMARK    8  A    between atoms: _20  and  _21
REMARK    9  A    between atoms: _20  and  _23
REMARK   10  A    between atoms: _23  and  _24
REMARK   11  A    between atoms: _27  and  _29
REMARK   12  A    between atoms: _29  and  _30
REMARK   13  A    between atoms: _29  and  _32
REMARK   14  A    between atoms: _32  and  _33
REMARK   15  A    between atoms: _36  and  _38
REMARK   16  A    between atoms: _38  and  _39
REMARK   17  A    between atoms: _38  and  _41
REMARK   18  A    between atoms: _41  and  _42
REMARK   19  A    between atoms: _45  and  _47
REMARK   20  A    between atoms: _47  and  _48
REMARK   21  A    between atoms: _47  and  _50
REMARK   22  A    between atoms: _50  and  _51
REMARK   23  A    between atoms: _54  and  _56
REMARK   24  A    between atoms: _56  and  _57
REMARK   25  A    between atoms: _56  and  _59
REMARK   26  A    between atoms: _59  and  _60
REMARK   27  A    between atoms: _63  and  _65
REMARK   28  A    between atoms: _65  and  _66
REMARK   29  A    between atoms: _68  and  _70
REMARK   30  A    between atoms: _70  and  _71
REMARK   31  A    between atoms: _74  and  _76
REMARK   32  A    between atoms: _76  and  _77
REMARK   33  A    between atoms: _76  and  _79
REMARK   34  A    between atoms: _79  and  _80
REMARK   35  A    between atoms: _83  and  _85
REMARK   36  A    between atoms: _85  and  _86
REMARK   37  A    between atoms: _85  and  _88
REMARK   38  A    between atoms: _88  and  _89
REMARK   39  A    between atoms: _92  and  _94
REMARK   40  A    between atoms: _94  and  _95
REMARK   41  A    between atoms: _94  and  _97
REMARK   42  A    between atoms: _97  and  _98
REMARK   43  A    between atoms: _101  and  _103
REMARK   44  A    between atoms: _103  and  _104
REMARK   45  A    between atoms: _103  and  _106
REMARK   46  A    between atoms: _109  and  _111
REMARK   47  A    between atoms: _111  and  _112
REMARK   48  A    between atoms: _111  and  _114
REMARK   49  A    between atoms: _114  and  _115
REMARK   50  A    between atoms: _115  and  _116
REMARK   51  A    between atoms: _116  and  _117
REMARK   52  A    between atoms: _117  and  _118
REMARK   53  A    between atoms: _122  and  _124
REMARK   54  A    between atoms: _124  and  _125
REMARK   55  A    between atoms: _124  and  _127
REMARK   56  A    between atoms: _127  and  _128
REMARK   57  A    between atoms: _128  and  _129
REMARK   58  A    between atoms: _131  and  _133
REMARK   59  A    between atoms: _133  and  _134
REMARK   60  A    between atoms: _133  and  _136
REMARK   61  A    between atoms: _136  and  _137
REMARK   62  A    between atoms: _140  and  _142
REMARK   63  A    between atoms: _142  and  _143
REMARK   64  A    between atoms: _145  and  _147
REMARK   65  A    between atoms: _147  and  _148
REMARK   66  A    between atoms: _150  and  _152
REMARK   67  A    between atoms: _152  and  _153
REMARK   68  A    between atoms: _152  and  _155
REMARK   69  A    between atoms: _158  and  _160
REMARK   70  A    between atoms: _160  and  _161
REMARK   71  A    between atoms: _163  and  _165
REMARK   72  A    between atoms: _165  and  _166
REMARK   73  A    between atoms: _168  and  _170
REMARK   74  A    between atoms: _170  and  _171
REMARK   75  A    between atoms: _170  and  _173
REMARK   76  A    between atoms: _173  and  _174
REMARK   77  A    between atoms: _180  and  _182
REMARK   78  A    between atoms: _182  and  _183
REMARK   79  A    between atoms: _182  and  _185
REMARK   80  A    between atoms: _185  and  _186
REMARK   81  A    between atoms: _189  and  _191
REMARK   82  A    between atoms: _191  and  _192
REMARK   83  A    between atoms: _191  and  _194
REMARK   84  A    between atoms: _197  and  _199
REMARK   85  A    between atoms: _199  and  _200
REMARK   86  A    between atoms: _199  and  _202
REMARK   87  A    between atoms: _202  and  _203
REMARK   88  A    between atoms: _206  and  _208
REMARK   89  A    between atoms: _208  and  _209
REMARK   90  A    between atoms: _208  and  _211
REMARK   91  A    between atoms: _211  and  _212
REMARK   92  A    between atoms: _216  and  _217
REMARK   93  A    between atoms: _222  and  _224
REMARK   94  A    between atoms: _224  and  _225
REMARK   95  A    between atoms: _224  and  _227
REMARK   96  A    between atoms: _230  and  _232
REMARK   97  A    between atoms: _232  and  _233
REMARK   98  A    between atoms: _232  and  _235
REMARK   99  A    between atoms: _235  and  _236
REMARK  100  A    between atoms: _241  and  _243
REMARK  101  A    between atoms: _243  and  _244
REMARK  102  A    between atoms: _243  and  _246
REMARK  103  A    between atoms: _246  and  _247
REMARK  104  A    between atoms: _250  and  _252
REMARK  105  A    between atoms: _252  and  _253
REMARK  106  A    between atoms: _252  and  _255
REMARK  107  A    between atoms: _255  and  _256
REMARK  108  A    between atoms: _259  and  _261
REMARK  109  A    between atoms: _261  and  _262
REMARK  110  A    between atoms: _264  and  _266
REMARK  111  A    between atoms: _266  and  _267
REMARK  112  A    between atoms: _266  and  _269
REMARK  113  A    between atoms: _269  and  _270
REMARK  114  A    between atoms: _270  and  _271
REMARK  115  A    between atoms: _271  and  _272
REMARK  116  A    between atoms: _281  and  _283
REMARK  117  A    between atoms: _283  and  _284
REMARK  118  A    between atoms: _283  and  _286
REMARK  119  A    between atoms: _286  and  _287
REMARK  120  A    between atoms: _292  and  _294
REMARK  121  A    between atoms: _294  and  _295
REMARK  122  A    between atoms: _294  and  _297
REMARK  123  A    between atoms: _297  and  _298
REMARK  124  A    between atoms: _298  and  _299
REMARK  125  A    between atoms: _299  and  _300
REMARK  126  A    between atoms: _302  and  _303
REMARK  127  A    between atoms: _309  and  _311
REMARK  128  A    between atoms: _311  and  _312
REMARK  129  A    between atoms: _311  and  _314
REMARK  130  A    between atoms: _314  and  _315
REMARK  131  A    between atoms: _318  and  _320
REMARK  132  A    between atoms: _320  and  _321
REMARK  133  A    between atoms: _320  and  _323
REMARK  134  A    between atoms: _323  and  _324
REMARK  135  A    between atoms: _327  and  _329
REMARK  136  A    between atoms: _329  and  _330
REMARK  137  A    between atoms: _329  and  _332
REMARK  138  A    between atoms: _332  and  _333
REMARK  139  A    between atoms: _336  and  _338
REMARK  140  A    between atoms: _338  and  _339
REMARK  141  A    between atoms: _338  and  _341
REMARK  142  A    between atoms: _341  and  _342
REMARK  143  A    between atoms: _345  and  _347
REMARK  144  A    between atoms: _347  and  _348
REMARK  145  A    between atoms: _350  and  _352
REMARK  146  A    between atoms: _352  and  _353
REMARK  147  A    between atoms: _356  and  _358
REMARK  148  A    between atoms: _358  and  _359
REMARK  149  A    between atoms: _358  and  _361
REMARK  150  A    between atoms: _361  and  _362
REMARK  151  A    between atoms: _365  and  _367
REMARK  152  A    between atoms: _367  and  _368
REMARK  153  A    between atoms: _367  and  _370
REMARK  154  A    between atoms: _370  and  _371
REMARK  155  A    between atoms: _374  and  _376
REMARK  156  A    between atoms: _376  and  _377
REMARK  157  A    between atoms: _376  and  _379
REMARK  158  A    between atoms: _379  and  _380
REMARK  159  A    between atoms: _383  and  _385
REMARK  160  A    between atoms: _385  and  _386
REMARK  161  A    between atoms: _385  and  _388
REMARK  162  A    between atoms: _391  and  _393
REMARK  163  A    between atoms: _393  and  _394
REMARK  164  A    between atoms: _393  and  _396
REMARK  165  A    between atoms: _396  and  _397
REMARK  166  A    between atoms: _397  and  _398
REMARK  167  A    between atoms: _398  and  _399
REMARK  168  A    between atoms: _399  and  _400
REMARK  169  A    between atoms: _404  and  _406
REMARK  170  A    between atoms: _406  and  _407
REMARK  171  A    between atoms: _406  and  _409
REMARK  172  A    between atoms: _409  and  _410
REMARK  173  A    between atoms: _410  and  _411
REMARK  174  A    between atoms: _413  and  _415
REMARK  175  A    between atoms: _415  and  _416
REMARK  176  A    between atoms: _415  and  _418
REMARK  177  A    between atoms: _418  and  _419
REMARK  178  A    between atoms: _422  and  _424
REMARK  179  A    between atoms: _424  and  _425
REMARK  180  A    between atoms: _427  and  _429
REMARK  181  A    between atoms: _429  and  _430
REMARK  182  A    between atoms: _432  and  _434
REMARK  183  A    between atoms: _434  and  _435
REMARK  184  A    between atoms: _434  and  _437
REMARK  185  A    between atoms: _440  and  _442
REMARK  186  A    between atoms: _442  and  _443
REMARK  187  A    between atoms: _445  and  _447
REMARK  188  A    between atoms: _447  and  _448
REMARK  189  A    between atoms: _450  and  _452
REMARK  190  A    between atoms: _452  and  _453
REMARK  191  A    between atoms: _452  and  _455
REMARK  192  A    between atoms: _455  and  _456
REMARK  193  A    between atoms: _462  and  _464
REMARK  194  A    between atoms: _464  and  _465
REMARK  195  A    between atoms: _464  and  _467
REMARK  196  A    between atoms: _467  and  _468
REMARK  197  A    between atoms: _471  and  _473
REMARK  198  A    between atoms: _473  and  _474
REMARK  199  A    between atoms: _473  and  _476
REMARK  200  A    between atoms: _479  and  _481
REMARK  201  A    between atoms: _481  and  _482
REMARK  202  A    between atoms: _481  and  _484
REMARK  203  A    between atoms: _484  and  _485
REMARK  204  A    between atoms: _489  and  _490
REMARK  205  A    between atoms: _495  and  _497
REMARK  206  A    between atoms: _497  and  _498
REMARK  207  A    between atoms: _497  and  _500
REMARK  208  A    between atoms: _500  and  _501
REMARK  209  A    between atoms: _505  and  _506
REMARK  210  A    between atoms: _511  and  _513
REMARK  211  A    between atoms: _513  and  _514
REMARK  212  A    between atoms: _513  and  _516
REMARK  213  A    between atoms: _519  and  _521
REMARK  214  A    between atoms: _521  and  _522
REMARK  215  A    between atoms: _521  and  _524
REMARK  216  A    between atoms: _524  and  _525
REMARK  217  A    between atoms: _530  and  _532
REMARK  218  A    between atoms: _532  and  _533
REMARK  219  A    between atoms: _532  and  _535
REMARK  220  A    between atoms: _535  and  _536
REMARK  221  A    between atoms: _539  and  _541
REMARK  222  A    between atoms: _541  and  _542
REMARK  223  A    between atoms: _541  and  _544
REMARK  224  A    between atoms: _544  and  _545
REMARK  225  A    between atoms: _548  and  _550
REMARK  226  A    between atoms: _550  and  _551
REMARK  227  A    between atoms: _553  and  _555
REMARK  228  A    between atoms: _555  and  _556
REMARK  229  A    between atoms: _555  and  _558
REMARK  230  A    between atoms: _558  and  _559
REMARK  231  A    between atoms: _559  and  _560
REMARK  232  A    between atoms: _560  and  _561
REMARK  233  A    between atoms: _570  and  _572
REMARK  234  A    between atoms: _572  and  _573
REMARK  235  A    between atoms: _572  and  _575
REMARK  236  A    between atoms: _575  and  _576
REMARK                            x       y       z     vdW  Elec       q    Type
REMARK                         _______ _______ _______ _____ _____    ______ ____
ROOT
ATOM      1  O   HOH     1      24.858  33.313  15.583  0.00  0.00    +0.000 OA
ENDROOT
TORSDOF 0
REMARK  Name = ../refined-set-2016/2avq/2avq_pocket.pdb
REMARK  236 active torsions:
REMARK  status: ('A' for Active; 'I' for Inactive)
REMARK    1  A    between atoms: _1  and  _3
REMARK    2  A    between atoms: _3  and  _4
REMARK    3  A    between atoms: _3  and  _6
REMARK    4  A    between atoms: _6  and  _7
REMARK    5  A    between atoms: _7  and  _8
REMARK    6  A    between atoms: _8  and  _9
REMARK    7  A    between atoms: _18  and  _20
REMARK    8  A    between atoms: _20  and  _21
REMARK    9  A    between atoms: _20  and  _23
REMARK   10  A    between atoms: _23  and  _24
REMARK   11  A    between atoms: _27  and  _29
REMARK   12  A    between atoms: _29  and  _30
REMARK   13  A    between atoms: _29  and  _32
REMARK   14  A    between atoms: _32  and  _33
REMARK   15  A    between atoms: _36  and  _38
REMARK   16  A    between atoms: _38  and  _39
REMARK   17  A    between atoms: _38  and  _41
REMARK   18  A    between atoms: _41  and  _42
REMARK   19  A    between atoms: _45  and  _47
REMARK   20  A    between atoms: _47  and  _48
REMARK   21  A    between atoms: _47  and  _50
REMARK   22  A    between atoms: _50  and  _51
REMARK   23  A    between atoms: _54  and  _56
REMARK   24  A    between atoms: _56  and  _57
REMARK   25  A    between atoms: _56  and  _59
REMARK   26  A    between atoms: _59  and  _60
REMARK   27  A    between atoms: _63  and  _65
REMARK   28  A    between atoms: _65  and  _66
REMARK   29  A    between atoms: _68  and  _70
REMARK   30  A    between atoms: _70  and  _71
REMARK   31  A    between atoms: _74  and  _76
REMARK   32  A    between atoms: _76  and  _77
REMARK   33  A    between atoms: _76  and  _79
REMARK   34  A    between atoms: _79  and  _80
REMARK   35  A    between atoms: _83  and  _85
REMARK   36  A    between atoms: _85  and  _86
REMARK   37  A    between atoms: _85  and  _88
REMARK   38  A    between atoms: _88  and  _89
REMARK   39  A    between atoms: _92  and  _94
REMARK   40  A    between atoms: _94  and  _95
REMARK   41  A    between atoms: _94  and  _97
REMARK   42  A    between atoms: _97  and  _98
REMARK   43  A    between atoms: _101  and  _103
REMARK   44  A    between atoms: _103  and  _104
REMARK   45  A    between atoms: _103  and  _106
REMARK   46  A    between atoms: _109  and  _111
REMARK   47  A    between atoms: _111  and  _112
REMARK   48  A    between atoms: _111  and  _114
REMARK   49  A    between atoms: _114  and  _115
REMARK   50  A    between atoms: _115  and  _116
REMARK   51  A    between atoms: _116  and  _117
REMARK   52  A    between atoms: _117  and  _118
REMARK   53  A    between atoms: _122  and  _124
REMARK   54  A    between atoms: _124  and  _125
REMARK   55  A    between atoms: _124  and  _127
REMARK   56  A    between atoms: _127  and  _128
REMARK   57  A    between atoms: _128  and  _129
REMARK   58  A    between atoms: _131  and  _133
REMARK   59  A    between atoms: _133  and  _134
REMARK   60  A    between atoms: _133  and  _136
REMARK   61  A    between atoms: _136  and  _137
REMARK   62  A    between atoms: _140  and  _142
REMARK   63  A    between atoms: _142  and  _143
REMARK   64  A    between atoms: _145  and  _147
REMARK   65  A    between atoms: _147  and  _148
REMARK   66  A    between atoms: _150  and  _152
REMARK   67  A    between atoms: _152  and  _153
REMARK   68  A    between atoms: _152  and  _155
REMARK   69  A    between atoms: _158  and  _160
REMARK   70  A    between atoms: _160  and  _161
REMARK   71  A    between atoms: _163  and  _165
REMARK   72  A    between atoms: _165  and  _166
REMARK   73  A    between atoms: _168  and  _170
REMARK   74  A    between atoms: _170  and  _171
REMARK   75  A    between atoms: _170  and  _173
REMARK   76  A    between atoms: _173  and  _174
REMARK   77  A    between atoms: _180  and  _182
REMARK   78  A    between atoms: _182  and  _183
REMARK   79  A    between atoms: _182  and  _185
REMARK   80  A    between atoms: _185  and  _186
REMARK   81  A    between atoms: _189  and  _191
REMARK   82  A    between atoms: _191  and  _192
REMARK   83  A    between atoms: _191  and  _194
REMARK   84  A    between atoms: _197  and  _199
REMARK   85  A    between atoms: _199  and  _200
REMARK   86  A    between atoms: _199  and  _202
REMARK   87  A    between atoms: _202  and  _203
REMARK   88  A    between atoms: _206  and  _208
REMARK   89  A    between atoms: _208  and  _209
REMARK   90  A    between atoms: _208  and  _211
REMARK   91  A    between atoms: _211  and  _212
REMARK   92  A    between atoms: _216  and  _217
REMARK   93  A    between atoms: _222  and  _224
REMARK   94  A    between atoms: _224  and  _225
REMARK   95  A    between atoms: _224  and  _227
REMARK   96  A    between atoms: _230  and  _232
REMARK   97  A    between atoms: _232  and  _233
REMARK   98  A    between atoms: _232  and  _235
REMARK   99  A    between atoms: _235  and  _236
REMARK  100  A    between atoms: _241  and  _243
REMARK  101  A    between atoms: _243  and  _244
REMARK  102  A    between atoms: _243  and  _246
REMARK  103  A    between atoms: _246  and  _247
REMARK  104  A    between atoms: _250  and  _252
REMARK  105  A    between atoms: _252  and  _253
REMARK  106  A    between atoms: _252  and  _255
REMARK  107  A    between atoms: _255  and  _256
REMARK  108  A    between atoms: _259  and  _261
REMARK  109  A    between atoms: _261  and  _262
REMARK  110  A    between atoms: _264  and  _266
REMARK  111  A    between atoms: _266  and  _267
REMARK  112  A    between atoms: _266  and  _269
REMARK  113  A    between atoms: _269  and  _270
REMARK  114  A    between atoms: _270  and  _271
REMARK  115  A    between atoms: _271  and  _272
REMARK  116  A    between atoms: _281  and  _283
REMARK  117  A    between atoms: _283  and  _284
REMARK  118  A    between atoms: _283  and  _286
REMARK  119  A    between atoms: _286  and  _287
REMARK  120  A    between atoms: _292  and  _294
REMARK  121  A    between atoms: _294  and  _295
REMARK  122  A    between atoms: _294  and  _297
REMARK  123  A    between atoms: _297  and  _298
REMARK  124  A    between atoms: _298  and  _299
REMARK  125  A    between atoms: _299  and  _300
REMARK  126  A    between atoms: _302  and  _303
REMARK  127  A    between atoms: _309  and  _311
REMARK  128  A    between atoms: _311  and  _312
REMARK  129  A    between atoms: _311  and  _314
REMARK  130  A    between atoms: _314  and  _315
REMARK  131  A    between atoms: _318  and  _320
REMARK  132  A    between atoms: _320  and  _321
REMARK  133  A    between atoms: _320  and  _323
REMARK  134  A    between atoms: _323  and  _324
REMARK  135  A    between atoms: _327  and  _329
REMARK  136  A    between atoms: _329  and  _330
REMARK  137  A    between atoms: _329  and  _332
REMARK  138  A    between atoms: _332  and  _333
REMARK  139  A    between atoms: _336  and  _338
REMARK  140  A    between atoms: _338  and  _339
REMARK  141  A    between atoms: _338  and  _341
REMARK  142  A    between atoms: _341  and  _342
REMARK  143  A    between atoms: _345  and  _347
REMARK  144  A    between atoms: _347  and  _348
REMARK  145  A    between atoms: _350  and  _352
REMARK  146  A    between atoms: _352  and  _353
REMARK  147  A    between atoms: _356  and  _358
REMARK  148  A    between atoms: _358  and  _359
REMARK  149  A    between atoms: _358  and  _361
REMARK  150  A    between atoms: _361  and  _362
REMARK  151  A    between atoms: _365  and  _367
REMARK  152  A    between atoms: _367  and  _368
REMARK  153  A    between atoms: _367  and  _370
REMARK  154  A    between atoms: _370  and  _371
REMARK  155  A    between atoms: _374  and  _376
REMARK  156  A    between atoms: _376  and  _377
REMARK  157  A    between atoms: _376  and  _379
REMARK  158  A    between atoms: _379  and  _380
REMARK  159  A    between atoms: _383  and  _385
REMARK  160  A    between atoms: _385  and  _386
REMARK  161  A    between atoms: _385  and  _388
REMARK  162  A    between atoms: _391  and  _393
REMARK  163  A    between atoms: _393  and  _394
REMARK  164  A    between atoms: _393  and  _396
REMARK  165  A    between atoms: _396  and  _397
REMARK  166  A    between atoms: _397  and  _398
REMARK  167  A    between atoms: _398  and  _399
REMARK  168  A    between atoms: _399  and  _400
REMARK  169  A    between atoms: _404  and  _406
REMARK  170  A    between atoms: _406  and  _407
REMARK  171  A    between atoms: _406  and  _409
REMARK  172  A    between atoms: _409  and  _410
REMARK  173  A    between atoms: _410  and  _411
REMARK  174  A    between atoms: _413  and  _415
REMARK  175  A    between atoms: _415  and  _416
REMARK  176  A    between atoms: _415  and  _418
REMARK  177  A    between atoms: _418  and  _419
REMARK  178  A    between atoms: _422  and  _424
REMARK  179  A    between atoms: _424  and  _425
REMARK  180  A    between atoms: _427  and  _429
REMARK  181  A    between atoms: _429  and  _430
REMARK  182  A    between atoms: _432  and  _434
REMARK  183  A    between atoms: _434  and  _435
REMARK  184  A    between atoms: _434  and  _437
REMARK  185  A    between atoms: _440  and  _442
REMARK  186  A    between atoms: _442  and  _443
REMARK  187  A    between atoms: _445  and  _447
REMARK  188  A    between atoms: _447  and  _448
REMARK  189  A    between atoms: _450  and  _452
REMARK  190  A    between atoms: _452  and  _453
REMARK  191  A    between atoms: _452  and  _455
REMARK  192  A    between atoms: _455  and  _456
REMARK  193  A    between atoms: _462  and  _464
REMARK  194  A    between atoms: _464  and  _465
REMARK  195  A    between atoms: _464  and  _467
REMARK  196  A    between atoms: _467  and  _468
REMARK  197  A    between atoms: _471  and  _473
REMARK  198  A    between atoms: _473  and  _474
REMARK  199  A    between atoms: _473  and  _476
REMARK  200  A    between atoms: _479  and  _481
REMARK  201  A    between atoms: _481  and  _482
REMARK  202  A    between atoms: _481  and  _484
REMARK  203  A    between atoms: _484  and  _485
REMARK  204  A    between atoms: _489  and  _490
REMARK  205  A    between atoms: _495  and  _497
REMARK  206  A    between atoms: _497  and  _498
REMARK  207  A    between atoms: _497  and  _500
REMARK  208  A    between atoms: _500  and  _501
REMARK  209  A    between atoms: _505  and  _506
REMARK  210  A    between atoms: _511  and  _513
REMARK  211  A    between atoms: _513  and  _514
REMARK  212  A    between atoms: _513  and  _516
REMARK  213  A    between atoms: _519  and  _521
REMARK  214  A    between atoms: _521  and  _522
REMARK  215  A    between atoms: _521  and  _524
REMARK  216  A    between atoms: _524  and  _525
REMARK  217  A    between atoms: _530  and  _532
REMARK  218  A    between atoms: _532  and  _533
REMARK  219  A    between atoms: _532  and  _535
REMARK  220  A    between atoms: _535  and  _536
REMARK  221  A    between atoms: _539  and  _541
REMARK  222  A    between atoms: _541  and  _542
REMARK  223  A    between atoms: _541  and  _544
REMARK  224  A    between atoms: _544  and  _545
REMARK  225  A    between atoms: _548  and  _550
REMARK  226  A    between atoms: _550  and  _551
REMARK  227  A    between atoms: _553  and  _555
REMARK  228  A    between atoms: _555  and  _556
REMARK  229  A    between atoms: _555  and  _558
REMARK  230  A    between atoms: _558  and  _559
REMARK  231  A    between atoms: _559  and  _560
REMARK  232  A    between atoms: _560  and  _561
REMARK  233  A    between atoms: _570  and  _572
REMARK  234  A    between atoms: _572  and  _573
REMARK  235  A    between atoms: _572  and  _575
REMARK  236  A    between atoms: _575  and  _576
REMARK                            x       y       z     vdW  Elec       q    Type
REMARK                         _______ _______ _______ _____ _____    ______ ____
ROOT
ATOM      1  O   HOH     1      21.163  35.581  17.573  0.00  0.00    +0.000 OA
ENDROOT
TORSDOF 0
REMARK  Name = ../refined-set-2016/2avq/2avq_pocket.pdb
REMARK  236 active torsions:
REMARK  status: ('A' for Active; 'I' for Inactive)
REMARK    1  A    between atoms: _1  and  _3
REMARK    2  A    between atoms: _3  and  _4
REMARK    3  A    between atoms: _3  and  _6
REMARK    4  A    between atoms: _6  and  _7
REMARK    5  A    between atoms: _7  and  _8
REMARK    6  A    between atoms: _8  and  _9
REMARK    7  A    between atoms: _18  and  _20
REMARK    8  A    between atoms: _20  and  _21
REMARK    9  A    between atoms: _20  and  _23
REMARK   10  A    between atoms: _23  and  _24
REMARK   11  A    between atoms: _27  and  _29
REMARK   12  A    between atoms: _29  and  _30
REMARK   13  A    between atoms: _29  and  _32
REMARK   14  A    between atoms: _32  and  _33
REMARK   15  A    between atoms: _36  and  _38
REMARK   16  A    between atoms: _38  and  _39
REMARK   17  A    between atoms: _38  and  _41
REMARK   18  A    between atoms: _41  and  _42
REMARK   19  A    between atoms: _45  and  _47
REMARK   20  A    between atoms: _47  and  _48
REMARK   21  A    between atoms: _47  and  _50
REMARK   22  A    between atoms: _50  and  _51
REMARK   23  A    between atoms: _54  and  _56
REMARK   24  A    between atoms: _56  and  _57
REMARK   25  A    between atoms: _56  and  _59
REMARK   26  A    between atoms: _59  and  _60
REMARK   27  A    between atoms: _63  and  _65
REMARK   28  A    between atoms: _65  and  _66
REMARK   29  A    between atoms: _68  and  _70
REMARK   30  A    between atoms: _70  and  _71
REMARK   31  A    between atoms: _74  and  _76
REMARK   32  A    between atoms: _76  and  _77
REMARK   33  A    between atoms: _76  and  _79
REMARK   34  A    between atoms: _79  and  _80
REMARK   35  A    between atoms: _83  and  _85
REMARK   36  A    between atoms: _85  and  _86
REMARK   37  A    between atoms: _85  and  _88
REMARK   38  A    between atoms: _88  and  _89
REMARK   39  A    between atoms: _92  and  _94
REMARK   40  A    between atoms: _94  and  _95
REMARK   41  A    between atoms: _94  and  _97
REMARK   42  A    between atoms: _97  and  _98
REMARK   43  A    between atoms: _101  and  _103
REMARK   44  A    between atoms: _103  and  _104
REMARK   45  A    between atoms: _103  and  _106
REMARK   46  A    between atoms: _109  and  _111
REMARK   47  A    between atoms: _111  and  _112
REMARK   48  A    between atoms: _111  and  _114
REMARK   49  A    between atoms: _114  and  _115
REMARK   50  A    between atoms: _115  and  _116
REMARK   51  A    between atoms: _116  and  _117
REMARK   52  A    between atoms: _117  and  _118
REMARK   53  A    between atoms: _122  and  _124
REMARK   54  A    between atoms: _124  and  _125
REMARK   55  A    between atoms: _124  and  _127
REMARK   56  A    between atoms: _127  and  _128
REMARK   57  A    between atoms: _128  and  _129
REMARK   58  A    between atoms: _131  and  _133
REMARK   59  A    between atoms: _133  and  _134
REMARK   60  A    between atoms: _133  and  _136
REMARK   61  A    between atoms: _136  and  _137
REMARK   62  A    between atoms: _140  and  _142
REMARK   63  A    between atoms: _142  and  _143
REMARK   64  A    between atoms: _145  and  _147
REMARK   65  A    between atoms: _147  and  _148
REMARK   66  A    between atoms: _150  and  _152
REMARK   67  A    between atoms: _152  and  _153
REMARK   68  A    between atoms: _152  and  _155
REMARK   69  A    between atoms: _158  and  _160
REMARK   70  A    between atoms: _160  and  _161
REMARK   71  A    between atoms: _163  and  _165
REMARK   72  A    between atoms: _165  and  _166
REMARK   73  A    between atoms: _168  and  _170
REMARK   74  A    between atoms: _170  and  _171
REMARK   75  A    between atoms: _170  and  _173
REMARK   76  A    between atoms: _173  and  _174
REMARK   77  A    between atoms: _180  and  _182
REMARK   78  A    between atoms: _182  and  _183
REMARK   79  A    between atoms: _182  and  _185
REMARK   80  A    between atoms: _185  and  _186
REMARK   81  A    between atoms: _189  and  _191
REMARK   82  A    between atoms: _191  and  _192
REMARK   83  A    between atoms: _191  and  _194
REMARK   84  A    between atoms: _197  and  _199
REMARK   85  A    between atoms: _199  and  _200
REMARK   86  A    between atoms: _199  and  _202
REMARK   87  A    between atoms: _202  and  _203
REMARK   88  A    between atoms: _206  and  _208
REMARK   89  A    between atoms: _208  and  _209
REMARK   90  A    between atoms: _208  and  _211
REMARK   91  A    between atoms: _211  and  _212
REMARK   92  A    between atoms: _216  and  _217
REMARK   93  A    between atoms: _222  and  _224
REMARK   94  A    between atoms: _224  and  _225
REMARK   95  A    between atoms: _224  and  _227
REMARK   96  A    between atoms: _230  and  _232
REMARK   97  A    between atoms: _232  and  _233
REMARK   98  A    between atoms: _232  and  _235
REMARK   99  A    between atoms: _235  and  _236
REMARK  100  A    between atoms: _241  and  _243
REMARK  101  A    between atoms: _243  and  _244
REMARK  102  A    between atoms: _243  and  _246
REMARK  103  A    between atoms: _246  and  _247
REMARK  104  A    between atoms: _250  and  _252
REMARK  105  A    between atoms: _252  and  _253
REMARK  106  A    between atoms: _252  and  _255
REMARK  107  A    between atoms: _255  and  _256
REMARK  108  A    between atoms: _259  and  _261
REMARK  109  A    between atoms: _261  and  _262
REMARK  110  A    between atoms: _264  and  _266
REMARK  111  A    between atoms: _266  and  _267
REMARK  112  A    between atoms: _266  and  _269
REMARK  113  A    between atoms: _269  and  _270
REMARK  114  A    between atoms: _270  and  _271
REMARK  115  A    between atoms: _271  and  _272
REMARK  116  A    between atoms: _281  and  _283
REMARK  117  A    between atoms: _283  and  _284
REMARK  118  A    between atoms: _283  and  _286
REMARK  119  A    between atoms: _286  and  _287
REMARK  120  A    between atoms: _292  and  _294
REMARK  121  A    between atoms: _294  and  _295
REMARK  122  A    between atoms: _294  and  _297
REMARK  123  A    between atoms: _297  and  _298
REMARK  124  A    between atoms: _298  and  _299
REMARK  125  A    between atoms: _299  and  _300
REMARK  126  A    between atoms: _302  and  _303
REMARK  127  A    between atoms: _309  and  _311
REMARK  128  A    between atoms: _311  and  _312
REMARK  129  A    between atoms: _311  and  _314
REMARK  130  A    between atoms: _314  and  _315
REMARK  131  A    between atoms: _318  and  _320
REMARK  132  A    between atoms: _320  and  _321
REMARK  133  A    between atoms: _320  and  _323
REMARK  134  A    between atoms: _323  and  _324
REMARK  135  A    between atoms: _327  and  _329
REMARK  136  A    between atoms: _329  and  _330
REMARK  137  A    between atoms: _329  and  _332
REMARK  138  A    between atoms: _332  and  _333
REMARK  139  A    between atoms: _336  and  _338
REMARK  140  A    between atoms: _338  and  _339
REMARK  141  A    between atoms: _338  and  _341
REMARK  142  A    between atoms: _341  and  _342
REMARK  143  A    between atoms: _345  and  _347
REMARK  144  A    between atoms: _347  and  _348
REMARK  145  A    between atoms: _350  and  _352
REMARK  146  A    between atoms: _352  and  _353
REMARK  147  A    between atoms: _356  and  _358
REMARK  148  A    between atoms: _358  and  _359
REMARK  149  A    between atoms: _358  and  _361
REMARK  150  A    between atoms: _361  and  _362
REMARK  151  A    between atoms: _365  and  _367
REMARK  152  A    between atoms: _367  and  _368
REMARK  153  A    between atoms: _367  and  _370
REMARK  154  A    between atoms: _370  and  _371
REMARK  155  A    between atoms: _374  and  _376
REMARK  156  A    between atoms: _376  and  _377
REMARK  157  A    between atoms: _376  and  _379
REMARK  158  A    between atoms: _379  and  _380
REMARK  159  A    between atoms: _383  and  _385
REMARK  160  A    between atoms: _385  and  _386
REMARK  161  A    between atoms: _385  and  _388
REMARK  162  A    between atoms: _391  and  _393
REMARK  163  A    between atoms: _393  and  _394
REMARK  164  A    between atoms: _393  and  _396
REMARK  165  A    between atoms: _396  and  _397
REMARK  166  A    between atoms: _397  and  _398
REMARK  167  A    between atoms: _398  and  _399
REMARK  168  A    between atoms: _399  and  _400
REMARK  169  A    between atoms: _404  and  _406
REMARK  170  A    between atoms: _406  and  _407
REMARK  171  A    between atoms: _406  and  _409
REMARK  172  A    between atoms: _409  and  _410
REMARK  173  A    between atoms: _410  and  _411
REMARK  174  A    between atoms: _413  and  _415
REMARK  175  A    between atoms: _415  and  _416
REMARK  176  A    between atoms: _415  and  _418
REMARK  177  A    between atoms: _418  and  _419
REMARK  178  A    between atoms: _422  and  _424
REMARK  179  A    between atoms: _424  and  _425
REMARK  180  A    between atoms: _427  and  _429
REMARK  181  A    between atoms: _429  and  _430
REMARK  182  A    between atoms: _432  and  _434
REMARK  183  A    between atoms: _434  and  _435
REMARK  184  A    between atoms: _434  and  _437
REMARK  185  A    between atoms: _440  and  _442
REMARK  186  A    between atoms: _442  and  _443
REMARK  187  A    between atoms: _445  and  _447
REMARK  188  A    between atoms: _447  and  _448
REMARK  189  A    between atoms: _450  and  _452
REMARK  190  A    between atoms: _452  and  _453
REMARK  191  A    between atoms: _452  and  _455
REMARK  192  A    between atoms: _455  and  _456
REMARK  193  A    between atoms: _462  and  _464
REMARK  194  A    between atoms: _464  and  _465
REMARK  195  A    between atoms: _464  and  _467
REMARK  196  A    between atoms: _467  and  _468
REMARK  197  A    between atoms: _471  and  _473
REMARK  198  A    between atoms: _473  and  _474
REMARK  199  A    between atoms: _473  and  _476
REMARK  200  A    between atoms: _479  and  _481
REMARK  201  A    between atoms: _481  and  _482
REMARK  202  A    between atoms: _481  and  _484
REMARK  203  A    between atoms: _484  and  _485
REMARK  204  A    between atoms: _489  and  _490
REMARK  205  A    between atoms: _495  and  _497
REMARK  206  A    between atoms: _497  and  _498
REMARK  207  A    between atoms: _497  and  _500
REMARK  208  A    between atoms: _500  and  _501
REMARK  209  A    between atoms: _505  and  _506
REMARK  210  A    between atoms: _511  and  _513
REMARK  211  A    between atoms: _513  and  _514
REMARK  212  A    between atoms: _513  and  _516
REMARK  213  A    between atoms: _519  and  _521
REMARK  214  A    between atoms: _521  and  _522
REMARK  215  A    between atoms: _521  and  _524
REMARK  216  A    between atoms: _524  and  _525
REMARK  217  A    between atoms: _530  and  _532
REMARK  218  A    between atoms: _532  and  _533
REMARK  219  A    between atoms: _532  and  _535
REMARK  220  A    between atoms: _535  and  _536
REMARK  221  A    between atoms: _539  and  _541
REMARK  222  A    between atoms: _541  and  _542
REMARK  223  A    between atoms: _541  and  _544
REMARK  224  A    between atoms: _544  and  _545
REMARK  225  A    between atoms: _548  and  _550
REMARK  226  A    between atoms: _550  and  _551
REMARK  227  A    between atoms: _553  and  _555
REMARK  228  A    between atoms: _555  and  _556
REMARK  229  A    between atoms: _555  and  _558
REMARK  230  A    between atoms: _558  and  _559
REMARK  231  A    between atoms: _559  and  _560
REMARK  232  A    between atoms: _560  and  _561
REMARK  233  A    between atoms: _570  and  _572
REMARK  234  A    between atoms: _572  and  _573
REMARK  235  A    between atoms: _572  and  _575
REMARK  236  A    between atoms: _575  and  _576
REMARK                            x       y       z     vdW  Elec       q    Type
REMARK                         _______ _______ _______ _____ _____    ______ ____
ROOT
ATOM      1  O   HOH     1      25.469  31.057  17.178  0.00  0.00    +0.000 OA
ENDROOT
TORSDOF 0
REMARK  Name = ../refined-set-2016/2avq/2avq_pocket.pdb
REMARK  236 active torsions:
REMARK  status: ('A' for Active; 'I' for Inactive)
REMARK    1  A    between atoms: _1  and  _3
REMARK    2  A    between atoms: _3  and  _4
REMARK    3  A    between atoms: _3  and  _6
REMARK    4  A    between atoms: _6  and  _7
REMARK    5  A    between atoms: _7  and  _8
REMARK    6  A    between atoms: _8  and  _9
REMARK    7  A    between atoms: _18  and  _20
REMARK    8  A    between atoms: _20  and  _21
REMARK    9  A    between atoms: _20  and  _23
REMARK   10  A    between atoms: _23  and  _24
REMARK   11  A    between atoms: _27  and  _29
REMARK   12  A    between atoms: _29  and  _30
REMARK   13  A    between atoms: _29  and  _32
REMARK   14  A    between atoms: _32  and  _33
REMARK   15  A    between atoms: _36  and  _38
REMARK   16  A    between atoms: _38  and  _39
REMARK   17  A    between atoms: _38  and  _41
REMARK   18  A    between atoms: _41  and  _42
REMARK   19  A    between atoms: _45  and  _47
REMARK   20  A    between atoms: _47  and  _48
REMARK   21  A    between atoms: _47  and  _50
REMARK   22  A    between atoms: _50  and  _51
REMARK   23  A    between atoms: _54  and  _56
REMARK   24  A    between atoms: _56  and  _57
REMARK   25  A    between atoms: _56  and  _59
REMARK   26  A    between atoms: _59  and  _60
REMARK   27  A    between atoms: _63  and  _65
REMARK   28  A    between atoms: _65  and  _66
REMARK   29  A    between atoms: _68  and  _70
REMARK   30  A    between atoms: _70  and  _71
REMARK   31  A    between atoms: _74  and  _76
REMARK   32  A    between atoms: _76  and  _77
REMARK   33  A    between atoms: _76  and  _79
REMARK   34  A    between atoms: _79  and  _80
REMARK   35  A    between atoms: _83  and  _85
REMARK   36  A    between atoms: _85  and  _86
REMARK   37  A    between atoms: _85  and  _88
REMARK   38  A    between atoms: _88  and  _89
REMARK   39  A    between atoms: _92  and  _94
REMARK   40  A    between atoms: _94  and  _95
REMARK   41  A    between atoms: _94  and  _97
REMARK   42  A    between atoms: _97  and  _98
REMARK   43  A    between atoms: _101  and  _103
REMARK   44  A    between atoms: _103  and  _104
REMARK   45  A    between atoms: _103  and  _106
REMARK   46  A    between atoms: _109  and  _111
REMARK   47  A    between atoms: _111  and  _112
REMARK   48  A    between atoms: _111  and  _114
REMARK   49  A    between atoms: _114  and  _115
REMARK   50  A    between atoms: _115  and  _116
REMARK   51  A    between atoms: _116  and  _117
REMARK   52  A    between atoms: _117  and  _118
REMARK   53  A    between atoms: _122  and  _124
REMARK   54  A    between atoms: _124  and  _125
REMARK   55  A    between atoms: _124  and  _127
REMARK   56  A    between atoms: _127  and  _128
REMARK   57  A    between atoms: _128  and  _129
REMARK   58  A    between atoms: _131  and  _133
REMARK   59  A    between atoms: _133  and  _134
REMARK   60  A    between atoms: _133  and  _136
REMARK   61  A    between atoms: _136  and  _137
REMARK   62  A    between atoms: _140  and  _142
REMARK   63  A    between atoms: _142  and  _143
REMARK   64  A    between atoms: _145  and  _147
REMARK   65  A    between atoms: _147  and  _148
REMARK   66  A    between atoms: _150  and  _152
REMARK   67  A    between atoms: _152  and  _153
REMARK   68  A    between atoms: _152  and  _155
REMARK   69  A    between atoms: _158  and  _160
REMARK   70  A    between atoms: _160  and  _161
REMARK   71  A    between atoms: _163  and  _165
REMARK   72  A    between atoms: _165  and  _166
REMARK   73  A    between atoms: _168  and  _170
REMARK   74  A    between atoms: _170  and  _171
REMARK   75  A    between atoms: _170  and  _173
REMARK   76  A    between atoms: _173  and  _174
REMARK   77  A    between atoms: _180  and  _182
REMARK   78  A    between atoms: _182  and  _183
REMARK   79  A    between atoms: _182  and  _185
REMARK   80  A    between atoms: _185  and  _186
REMARK   81  A    between atoms: _189  and  _191
REMARK   82  A    between atoms: _191  and  _192
REMARK   83  A    between atoms: _191  and  _194
REMARK   84  A    between atoms: _197  and  _199
REMARK   85  A    between atoms: _199  and  _200
REMARK   86  A    between atoms: _199  and  _202
REMARK   87  A    between atoms: _202  and  _203
REMARK   88  A    between atoms: _206  and  _208
REMARK   89  A    between atoms: _208  and  _209
REMARK   90  A    between atoms: _208  and  _211
REMARK   91  A    between atoms: _211  and  _212
REMARK   92  A    between atoms: _216  and  _217
REMARK   93  A    between atoms: _222  and  _224
REMARK   94  A    between atoms: _224  and  _225
REMARK   95  A    between atoms: _224  and  _227
REMARK   96  A    between atoms: _230  and  _232
REMARK   97  A    between atoms: _232  and  _233
REMARK   98  A    between atoms: _232  and  _235
REMARK   99  A    between atoms: _235  and  _236
REMARK  100  A    between atoms: _241  and  _243
REMARK  101  A    between atoms: _243  and  _244
REMARK  102  A    between atoms: _243  and  _246
REMARK  103  A    between atoms: _246  and  _247
REMARK  104  A    between atoms: _250  and  _252
REMARK  105  A    between atoms: _252  and  _253
REMARK  106  A    between atoms: _252  and  _255
REMARK  107  A    between atoms: _255  and  _256
REMARK  108  A    between atoms: _259  and  _261
REMARK  109  A    between atoms: _261  and  _262
REMARK  110  A    between atoms: _264  and  _266
REMARK  111  A    between atoms: _266  and  _267
REMARK  112  A    between atoms: _266  and  _269
REMARK  113  A    between atoms: _269  and  _270
REMARK  114  A    between atoms: _270  and  _271
REMARK  115  A    between atoms: _271  and  _272
REMARK  116  A    between atoms: _281  and  _283
REMARK  117  A    between atoms: _283  and  _284
REMARK  118  A    between atoms: _283  and  _286
REMARK  119  A    between atoms: _286  and  _287
REMARK  120  A    between atoms: _292  and  _294
REMARK  121  A    between atoms: _294  and  _295
REMARK  122  A    between atoms: _294  and  _297
REMARK  123  A    between atoms: _297  and  _298
REMARK  124  A    between atoms: _298  and  _299
REMARK  125  A    between atoms: _299  and  _300
REMARK  126  A    between atoms: _302  and  _303
REMARK  127  A    between atoms: _309  and  _311
REMARK  128  A    between atoms: _311  and  _312
REMARK  129  A    between atoms: _311  and  _314
REMARK  130  A    between atoms: _314  and  _315
REMARK  131  A    between atoms: _318  and  _320
REMARK  132  A    between atoms: _320  and  _321
REMARK  133  A    between atoms: _320  and  _323
REMARK  134  A    between atoms: _323  and  _324
REMARK  135  A    between atoms: _327  and  _329
REMARK  136  A    between atoms: _329  and  _330
REMARK  137  A    between atoms: _329  and  _332
REMARK  138  A    between atoms: _332  and  _333
REMARK  139  A    between atoms: _336  and  _338
REMARK  140  A    between atoms: _338  and  _339
REMARK  141  A    between atoms: _338  and  _341
REMARK  142  A    between atoms: _341  and  _342
REMARK  143  A    between atoms: _345  and  _347
REMARK  144  A    between atoms: _347  and  _348
REMARK  145  A    between atoms: _350  and  _352
REMARK  146  A    between atoms: _352  and  _353
REMARK  147  A    between atoms: _356  and  _358
REMARK  148  A    between atoms: _358  and  _359
REMARK  149  A    between atoms: _358  and  _361
REMARK  150  A    between atoms: _361  and  _362
REMARK  151  A    between atoms: _365  and  _367
REMARK  152  A    between atoms: _367  and  _368
REMARK  153  A    between atoms: _367  and  _370
REMARK  154  A    between atoms: _370  and  _371
REMARK  155  A    between atoms: _374  and  _376
REMARK  156  A    between atoms: _376  and  _377
REMARK  157  A    between atoms: _376  and  _379
REMARK  158  A    between atoms: _379  and  _380
REMARK  159  A    between atoms: _383  and  _385
REMARK  160  A    between atoms: _385  and  _386
REMARK  161  A    between atoms: _385  and  _388
REMARK  162  A    between atoms: _391  and  _393
REMARK  163  A    between atoms: _393  and  _394
REMARK  164  A    between atoms: _393  and  _396
REMARK  165  A    between atoms: _396  and  _397
REMARK  166  A    between atoms: _397  and  _398
REMARK  167  A    between atoms: _398  and  _399
REMARK  168  A    between atoms: _399  and  _400
REMARK  169  A    between atoms: _404  and  _406
REMARK  170  A    between atoms: _406  and  _407
REMARK  171  A    between atoms: _406  and  _409
REMARK  172  A    between atoms: _409  and  _410
REMARK  173  A    between atoms: _410  and  _411
REMARK  174  A    between atoms: _413  and  _415
REMARK  175  A    between atoms: _415  and  _416
REMARK  176  A    between atoms: _415  and  _418
REMARK  177  A    between atoms: _418  and  _419
REMARK  178  A    between atoms: _422  and  _424
REMARK  179  A    between atoms: _424  and  _425
REMARK  180  A    between atoms: _427  and  _429
REMARK  181  A    between atoms: _429  and  _430
REMARK  182  A    between atoms: _432  and  _434
REMARK  183  A    between atoms: _434  and  _435
REMARK  184  A    between atoms: _434  and  _437
REMARK  185  A    between atoms: _440  and  _442
REMARK  186  A    between atoms: _442  and  _443
REMARK  187  A    between atoms: _445  and  _447
REMARK  188  A    between atoms: _447  and  _448
REMARK  189  A    between atoms: _450  and  _452
REMARK  190  A    between atoms: _452  and  _453
REMARK  191  A    between atoms: _452  and  _455
REMARK  192  A    between atoms: _455  and  _456
REMARK  193  A    between atoms: _462  and  _464
REMARK  194  A    between atoms: _464  and  _465
REMARK  195  A    between atoms: _464  and  _467
REMARK  196  A    between atoms: _467  and  _468
REMARK  197  A    between atoms: _471  and  _473
REMARK  198  A    between atoms: _473  and  _474
REMARK  199  A    between atoms: _473  and  _476
REMARK  200  A    between atoms: _479  and  _481
REMARK  201  A    between atoms: _481  and  _482
REMARK  202  A    between atoms: _481  and  _484
REMARK  203  A    between atoms: _484  and  _485
REMARK  204  A    between atoms: _489  and  _490
REMARK  205  A    between atoms: _495  and  _497
REMARK  206  A    between atoms: _497  and  _498
REMARK  207  A    between atoms: _497  and  _500
REMARK  208  A    between atoms: _500  and  _501
REMARK  209  A    between atoms: _505  and  _506
REMARK  210  A    between atoms: _511  and  _513
REMARK  211  A    between atoms: _513  and  _514
REMARK  212  A    between atoms: _513  and  _516
REMARK  213  A    between atoms: _519  and  _521
REMARK  214  A    between atoms: _521  and  _522
REMARK  215  A    between atoms: _521  and  _524
REMARK  216  A    between atoms: _524  and  _525
REMARK  217  A    between atoms: _530  and  _532
REMARK  218  A    between atoms: _532  and  _533
REMARK  219  A    between atoms: _532  and  _535
REMARK  220  A    between atoms: _535  and  _536
REMARK  221  A    between atoms: _539  and  _541
REMARK  222  A    between atoms: _541  and  _542
REMARK  223  A    between atoms: _541  and  _544
REMARK  224  A    between atoms: _544  and  _545
REMARK  225  A    between atoms: _548  and  _550
REMARK  226  A    between atoms: _550  and  _551
REMARK  227  A    between atoms: _553  and  _555
REMARK  228  A    between atoms: _555  and  _556
REMARK  229  A    between atoms: _555  and  _558
REMARK  230  A    between atoms: _558  and  _559
REMARK  231  A    between atoms: _559  and  _560
REMARK  232  A    between atoms: _560  and  _561
REMARK  233  A    between atoms: _570  and  _572
REMARK  234  A    between atoms: _572  and  _573
REMARK  235  A    between atoms: _572  and  _575
REMARK  236  A    between atoms: _575  and  _576
REMARK                            x       y       z     vdW  Elec       q    Type
REMARK                         _______ _______ _______ _____ _____    ______ ____
ROOT
ATOM      1  O   HOH     1       4.590  21.368  11.822  0.00  0.00    +0.000 OA
ENDROOT
TORSDOF 0
REMARK  Name = ../refined-set-2016/2avq/2avq_pocket.pdb
REMARK  236 active torsions:
REMARK  status: ('A' for Active; 'I' for Inactive)
REMARK    1  A    between atoms: _1  and  _3
REMARK    2  A    between atoms: _3  and  _4
REMARK    3  A    between atoms: _3  and  _6
REMARK    4  A    between atoms: _6  and  _7
REMARK    5  A    between atoms: _7  and  _8
REMARK    6  A    between atoms: _8  and  _9
REMARK    7  A    between atoms: _18  and  _20
REMARK    8  A    between atoms: _20  and  _21
REMARK    9  A    between atoms: _20  and  _23
REMARK   10  A    between atoms: _23  and  _24
REMARK   11  A    between atoms: _27  and  _29
REMARK   12  A    between atoms: _29  and  _30
REMARK   13  A    between atoms: _29  and  _32
REMARK   14  A    between atoms: _32  and  _33
REMARK   15  A    between atoms: _36  and  _38
REMARK   16  A    between atoms: _38  and  _39
REMARK   17  A    between atoms: _38  and  _41
REMARK   18  A    between atoms: _41  and  _42
REMARK   19  A    between atoms: _45  and  _47
REMARK   20  A    between atoms: _47  and  _48
REMARK   21  A    between atoms: _47  and  _50
REMARK   22  A    between atoms: _50  and  _51
REMARK   23  A    between atoms: _54  and  _56
REMARK   24  A    between atoms: _56  and  _57
REMARK   25  A    between atoms: _56  and  _59
REMARK   26  A    between atoms: _59  and  _60
REMARK   27  A    between atoms: _63  and  _65
REMARK   28  A    between atoms: _65  and  _66
REMARK   29  A    between atoms: _68  and  _70
REMARK   30  A    between atoms: _70  and  _71
REMARK   31  A    between atoms: _74  and  _76
REMARK   32  A    between atoms: _76  and  _77
REMARK   33  A    between atoms: _76  and  _79
REMARK   34  A    between atoms: _79  and  _80
REMARK   35  A    between atoms: _83  and  _85
REMARK   36  A    between atoms: _85  and  _86
REMARK   37  A    between atoms: _85  and  _88
REMARK   38  A    between atoms: _88  and  _89
REMARK   39  A    between atoms: _92  and  _94
REMARK   40  A    between atoms: _94  and  _95
REMARK   41  A    between atoms: _94  and  _97
REMARK   42  A    between atoms: _97  and  _98
REMARK   43  A    between atoms: _101  and  _103
REMARK   44  A    between atoms: _103  and  _104
REMARK   45  A    between atoms: _103  and  _106
REMARK   46  A    between atoms: _109  and  _111
REMARK   47  A    between atoms: _111  and  _112
REMARK   48  A    between atoms: _111  and  _114
REMARK   49  A    between atoms: _114  and  _115
REMARK   50  A    between atoms: _115  and  _116
REMARK   51  A    between atoms: _116  and  _117
REMARK   52  A    between atoms: _117  and  _118
REMARK   53  A    between atoms: _122  and  _124
REMARK   54  A    between atoms: _124  and  _125
REMARK   55  A    between atoms: _124  and  _127
REMARK   56  A    between atoms: _127  and  _128
REMARK   57  A    between atoms: _128  and  _129
REMARK   58  A    between atoms: _131  and  _133
REMARK   59  A    between atoms: _133  and  _134
REMARK   60  A    between atoms: _133  and  _136
REMARK   61  A    between atoms: _136  and  _137
REMARK   62  A    between atoms: _140  and  _142
REMARK   63  A    between atoms: _142  and  _143
REMARK   64  A    between atoms: _145  and  _147
REMARK   65  A    between atoms: _147  and  _148
REMARK   66  A    between atoms: _150  and  _152
REMARK   67  A    between atoms: _152  and  _153
REMARK   68  A    between atoms: _152  and  _155
REMARK   69  A    between atoms: _158  and  _160
REMARK   70  A    between atoms: _160  and  _161
REMARK   71  A    between atoms: _163  and  _165
REMARK   72  A    between atoms: _165  and  _166
REMARK   73  A    between atoms: _168  and  _170
REMARK   74  A    between atoms: _170  and  _171
REMARK   75  A    between atoms: _170  and  _173
REMARK   76  A    between atoms: _173  and  _174
REMARK   77  A    between atoms: _180  and  _182
REMARK   78  A    between atoms: _182  and  _183
REMARK   79  A    between atoms: _182  and  _185
REMARK   80  A    between atoms: _185  and  _186
REMARK   81  A    between atoms: _189  and  _191
REMARK   82  A    between atoms: _191  and  _192
REMARK   83  A    between atoms: _191  and  _194
REMARK   84  A    between atoms: _197  and  _199
REMARK   85  A    between atoms: _199  and  _200
REMARK   86  A    between atoms: _199  and  _202
REMARK   87  A    between atoms: _202  and  _203
REMARK   88  A    between atoms: _206  and  _208
REMARK   89  A    between atoms: _208  and  _209
REMARK   90  A    between atoms: _208  and  _211
REMARK   91  A    between atoms: _211  and  _212
REMARK   92  A    between atoms: _216  and  _217
REMARK   93  A    between atoms: _222  and  _224
REMARK   94  A    between atoms: _224  and  _225
REMARK   95  A    between atoms: _224  and  _227
REMARK   96  A    between atoms: _230  and  _232
REMARK   97  A    between atoms: _232  and  _233
REMARK   98  A    between atoms: _232  and  _235
REMARK   99  A    between atoms: _235  and  _236
REMARK  100  A    between atoms: _241  and  _243
REMARK  101  A    between atoms: _243  and  _244
REMARK  102  A    between atoms: _243  and  _246
REMARK  103  A    between atoms: _246  and  _247
REMARK  104  A    between atoms: _250  and  _252
REMARK  105  A    between atoms: _252  and  _253
REMARK  106  A    between atoms: _252  and  _255
REMARK  107  A    between atoms: _255  and  _256
REMARK  108  A    between atoms: _259  and  _261
REMARK  109  A    between atoms: _261  and  _262
REMARK  110  A    between atoms: _264  and  _266
REMARK  111  A    between atoms: _266  and  _267
REMARK  112  A    between atoms: _266  and  _269
REMARK  113  A    between atoms: _269  and  _270
REMARK  114  A    between atoms: _270  and  _271
REMARK  115  A    between atoms: _271  and  _272
REMARK  116  A    between atoms: _281  and  _283
REMARK  117  A    between atoms: _283  and  _284
REMARK  118  A    between atoms: _283  and  _286
REMARK  119  A    between atoms: _286  and  _287
REMARK  120  A    between atoms: _292  and  _294
REMARK  121  A    between atoms: _294  and  _295
REMARK  122  A    between atoms: _294  and  _297
REMARK  123  A    between atoms: _297  and  _298
REMARK  124  A    between atoms: _298  and  _299
REMARK  125  A    between atoms: _299  and  _300
REMARK  126  A    between atoms: _302  and  _303
REMARK  127  A    between atoms: _309  and  _311
REMARK  128  A    between atoms: _311  and  _312
REMARK  129  A    between atoms: _311  and  _314
REMARK  130  A    between atoms: _314  and  _315
REMARK  131  A    between atoms: _318  and  _320
REMARK  132  A    between atoms: _320  and  _321
REMARK  133  A    between atoms: _320  and  _323
REMARK  134  A    between atoms: _323  and  _324
REMARK  135  A    between atoms: _327  and  _329
REMARK  136  A    between atoms: _329  and  _330
REMARK  137  A    between atoms: _329  and  _332
REMARK  138  A    between atoms: _332  and  _333
REMARK  139  A    between atoms: _336  and  _338
REMARK  140  A    between atoms: _338  and  _339
REMARK  141  A    between atoms: _338  and  _341
REMARK  142  A    between atoms: _341  and  _342
REMARK  143  A    between atoms: _345  and  _347
REMARK  144  A    between atoms: _347  and  _348
REMARK  145  A    between atoms: _350  and  _352
REMARK  146  A    between atoms: _352  and  _353
REMARK  147  A    between atoms: _356  and  _358
REMARK  148  A    between atoms: _358  and  _359
REMARK  149  A    between atoms: _358  and  _361
REMARK  150  A    between atoms: _361  and  _362
REMARK  151  A    between atoms: _365  and  _367
REMARK  152  A    between atoms: _367  and  _368
REMARK  153  A    between atoms: _367  and  _370
REMARK  154  A    between atoms: _370  and  _371
REMARK  155  A    between atoms: _374  and  _376
REMARK  156  A    between atoms: _376  and  _377
REMARK  157  A    between atoms: _376  and  _379
REMARK  158  A    between atoms: _379  and  _380
REMARK  159  A    between atoms: _383  and  _385
REMARK  160  A    between atoms: _385  and  _386
REMARK  161  A    between atoms: _385  and  _388
REMARK  162  A    between atoms: _391  and  _393
REMARK  163  A    between atoms: _393  and  _394
REMARK  164  A    between atoms: _393  and  _396
REMARK  165  A    between atoms: _396  and  _397
REMARK  166  A    between atoms: _397  and  _398
REMARK  167  A    between atoms: _398  and  _399
REMARK  168  A    between atoms: _399  and  _400
REMARK  169  A    between atoms: _404  and  _406
REMARK  170  A    between atoms: _406  and  _407
REMARK  171  A    between atoms: _406  and  _409
REMARK  172  A    between atoms: _409  and  _410
REMARK  173  A    between atoms: _410  and  _411
REMARK  174  A    between atoms: _413  and  _415
REMARK  175  A    between atoms: _415  and  _416
REMARK  176  A    between atoms: _415  and  _418
REMARK  177  A    between atoms: _418  and  _419
REMARK  178  A    between atoms: _422  and  _424
REMARK  179  A    between atoms: _424  and  _425
REMARK  180  A    between atoms: _427  and  _429
REMARK  181  A    between atoms: _429  and  _430
REMARK  182  A    between atoms: _432  and  _434
REMARK  183  A    between atoms: _434  and  _435
REMARK  184  A    between atoms: _434  and  _437
REMARK  185  A    between atoms: _440  and  _442
REMARK  186  A    between atoms: _442  and  _443
REMARK  187  A    between atoms: _445  and  _447
REMARK  188  A    between atoms: _447  and  _448
REMARK  189  A    between atoms: _450  and  _452
REMARK  190  A    between atoms: _452  and  _453
REMARK  191  A    between atoms: _452  and  _455
REMARK  192  A    between atoms: _455  and  _456
REMARK  193  A    between atoms: _462  and  _464
REMARK  194  A    between atoms: _464  and  _465
REMARK  195  A    between atoms: _464  and  _467
REMARK  196  A    between atoms: _467  and  _468
REMARK  197  A    between atoms: _471  and  _473
REMARK  198  A    between atoms: _473  and  _474
REMARK  199  A    between atoms: _473  and  _476
REMARK  200  A    between atoms: _479  and  _481
REMARK  201  A    between atoms: _481  and  _482
REMARK  202  A    between atoms: _481  and  _484
REMARK  203  A    between atoms: _484  and  _485
REMARK  204  A    between atoms: _489  and  _490
REMARK  205  A    between atoms: _495  and  _497
REMARK  206  A    between atoms: _497  and  _498
REMARK  207  A    between atoms: _497  and  _500
REMARK  208  A    between atoms: _500  and  _501
REMARK  209  A    between atoms: _505  and  _506
REMARK  210  A    between atoms: _511  and  _513
REMARK  211  A    between atoms: _513  and  _514
REMARK  212  A    between atoms: _513  and  _516
REMARK  213  A    between atoms: _519  and  _521
REMARK  214  A    between atoms: _521  and  _522
REMARK  215  A    between atoms: _521  and  _524
REMARK  216  A    between atoms: _524  and  _525
REMARK  217  A    between atoms: _530  and  _532
REMARK  218  A    between atoms: _532  and  _533
REMARK  219  A    between atoms: _532  and  _535
REMARK  220  A    between atoms: _535  and  _536
REMARK  221  A    between atoms: _539  and  _541
REMARK  222  A    between atoms: _541  and  _542
REMARK  223  A    between atoms: _541  and  _544
REMARK  224  A    between atoms: _544  and  _545
REMARK  225  A    between atoms: _548  and  _550
REMARK  226  A    between atoms: _550  and  _551
REMARK  227  A    between atoms: _553  and  _555
REMARK  228  A    between atoms: _555  and  _556
REMARK  229  A    between atoms: _555  and  _558
REMARK  230  A    between atoms: _558  and  _559
REMARK  231  A    between atoms: _559  and  _560
REMARK  232  A    between atoms: _560  and  _561
REMARK  233  A    between atoms: _570  and  _572
REMARK  234  A    between atoms: _572  and  _573
REMARK  235  A    between atoms: _572  and  _575
REMARK  236  A    between atoms: _575  and  _576
REMARK                            x       y       z     vdW  Elec       q    Type
REMARK                         _______ _______ _______ _____ _____    ______ ____
ROOT
ATOM      1  O   HOH     1       8.961  20.883   7.910  0.00  0.00    +0.000 OA
ENDROOT
TORSDOF 0
REMARK  Name = ../refined-set-2016/2avq/2avq_pocket.pdb
REMARK  236 active torsions:
REMARK  status: ('A' for Active; 'I' for Inactive)
REMARK    1  A    between atoms: _1  and  _3
REMARK    2  A    between atoms: _3  and  _4
REMARK    3  A    between atoms: _3  and  _6
REMARK    4  A    between atoms: _6  and  _7
REMARK    5  A    between atoms: _7  and  _8
REMARK    6  A    between atoms: _8  and  _9
REMARK    7  A    between atoms: _18  and  _20
REMARK    8  A    between atoms: _20  and  _21
REMARK    9  A    between atoms: _20  and  _23
REMARK   10  A    between atoms: _23  and  _24
REMARK   11  A    between atoms: _27  and  _29
REMARK   12  A    between atoms: _29  and  _30
REMARK   13  A    between atoms: _29  and  _32
REMARK   14  A    between atoms: _32  and  _33
REMARK   15  A    between atoms: _36  and  _38
REMARK   16  A    between atoms: _38  and  _39
REMARK   17  A    between atoms: _38  and  _41
REMARK   18  A    between atoms: _41  and  _42
REMARK   19  A    between atoms: _45  and  _47
REMARK   20  A    between atoms: _47  and  _48
REMARK   21  A    between atoms: _47  and  _50
REMARK   22  A    between atoms: _50  and  _51
REMARK   23  A    between atoms: _54  and  _56
REMARK   24  A    between atoms: _56  and  _57
REMARK   25  A    between atoms: _56  and  _59
REMARK   26  A    between atoms: _59  and  _60
REMARK   27  A    between atoms: _63  and  _65
REMARK   28  A    between atoms: _65  and  _66
REMARK   29  A    between atoms: _68  and  _70
REMARK   30  A    between atoms: _70  and  _71
REMARK   31  A    between atoms: _74  and  _76
REMARK   32  A    between atoms: _76  and  _77
REMARK   33  A    between atoms: _76  and  _79
REMARK   34  A    between atoms: _79  and  _80
REMARK   35  A    between atoms: _83  and  _85
REMARK   36  A    between atoms: _85  and  _86
REMARK   37  A    between atoms: _85  and  _88
REMARK   38  A    between atoms: _88  and  _89
REMARK   39  A    between atoms: _92  and  _94
REMARK   40  A    between atoms: _94  and  _95
REMARK   41  A    between atoms: _94  and  _97
REMARK   42  A    between atoms: _97  and  _98
REMARK   43  A    between atoms: _101  and  _103
REMARK   44  A    between atoms: _103  and  _104
REMARK   45  A    between atoms: _103  and  _106
REMARK   46  A    between atoms: _109  and  _111
REMARK   47  A    between atoms: _111  and  _112
REMARK   48  A    between atoms: _111  and  _114
REMARK   49  A    between atoms: _114  and  _115
REMARK   50  A    between atoms: _115  and  _116
REMARK   51  A    between atoms: _116  and  _117
REMARK   52  A    between atoms: _117  and  _118
REMARK   53  A    between atoms: _122  and  _124
REMARK   54  A    between atoms: _124  and  _125
REMARK   55  A    between atoms: _124  and  _127
REMARK   56  A    between atoms: _127  and  _128
REMARK   57  A    between atoms: _128  and  _129
REMARK   58  A    between atoms: _131  and  _133
REMARK   59  A    between atoms: _133  and  _134
REMARK   60  A    between atoms: _133  and  _136
REMARK   61  A    between atoms: _136  and  _137
REMARK   62  A    between atoms: _140  and  _142
REMARK   63  A    between atoms: _142  and  _143
REMARK   64  A    between atoms: _145  and  _147
REMARK   65  A    between atoms: _147  and  _148
REMARK   66  A    between atoms: _150  and  _152
REMARK   67  A    between atoms: _152  and  _153
REMARK   68  A    between atoms: _152  and  _155
REMARK   69  A    between atoms: _158  and  _160
REMARK   70  A    between atoms: _160  and  _161
REMARK   71  A    between atoms: _163  and  _165
REMARK   72  A    between atoms: _165  and  _166
REMARK   73  A    between atoms: _168  and  _170
REMARK   74  A    between atoms: _170  and  _171
REMARK   75  A    between atoms: _170  and  _173
REMARK   76  A    between atoms: _173  and  _174
REMARK   77  A    between atoms: _180  and  _182
REMARK   78  A    between atoms: _182  and  _183
REMARK   79  A    between atoms: _182  and  _185
REMARK   80  A    between atoms: _185  and  _186
REMARK   81  A    between atoms: _189  and  _191
REMARK   82  A    between atoms: _191  and  _192
REMARK   83  A    between atoms: _191  and  _194
REMARK   84  A    between atoms: _197  and  _199
REMARK   85  A    between atoms: _199  and  _200
REMARK   86  A    between atoms: _199  and  _202
REMARK   87  A    between atoms: _202  and  _203
REMARK   88  A    between atoms: _206  and  _208
REMARK   89  A    between atoms: _208  and  _209
REMARK   90  A    between atoms: _208  and  _211
REMARK   91  A    between atoms: _211  and  _212
REMARK   92  A    between atoms: _216  and  _217
REMARK   93  A    between atoms: _222  and  _224
REMARK   94  A    between atoms: _224  and  _225
REMARK   95  A    between atoms: _224  and  _227
REMARK   96  A    between atoms: _230  and  _232
REMARK   97  A    between atoms: _232  and  _233
REMARK   98  A    between atoms: _232  and  _235
REMARK   99  A    between atoms: _235  and  _236
REMARK  100  A    between atoms: _241  and  _243
REMARK  101  A    between atoms: _243  and  _244
REMARK  102  A    between atoms: _243  and  _246
REMARK  103  A    between atoms: _246  and  _247
REMARK  104  A    between atoms: _250  and  _252
REMARK  105  A    between atoms: _252  and  _253
REMARK  106  A    between atoms: _252  and  _255
REMARK  107  A    between atoms: _255  and  _256
REMARK  108  A    between atoms: _259  and  _261
REMARK  109  A    between atoms: _261  and  _262
REMARK  110  A    between atoms: _264  and  _266
REMARK  111  A    between atoms: _266  and  _267
REMARK  112  A    between atoms: _266  and  _269
REMARK  113  A    between atoms: _269  and  _270
REMARK  114  A    between atoms: _270  and  _271
REMARK  115  A    between atoms: _271  and  _272
REMARK  116  A    between atoms: _281  and  _283
REMARK  117  A    between atoms: _283  and  _284
REMARK  118  A    between atoms: _283  and  _286
REMARK  119  A    between atoms: _286  and  _287
REMARK  120  A    between atoms: _292  and  _294
REMARK  121  A    between atoms: _294  and  _295
REMARK  122  A    between atoms: _294  and  _297
REMARK  123  A    between atoms: _297  and  _298
REMARK  124  A    between atoms: _298  and  _299
REMARK  125  A    between atoms: _299  and  _300
REMARK  126  A    between atoms: _302  and  _303
REMARK  127  A    between atoms: _309  and  _311
REMARK  128  A    between atoms: _311  and  _312
REMARK  129  A    between atoms: _311  and  _314
REMARK  130  A    between atoms: _314  and  _315
REMARK  131  A    between atoms: _318  and  _320
REMARK  132  A    between atoms: _320  and  _321
REMARK  133  A    between atoms: _320  and  _323
REMARK  134  A    between atoms: _323  and  _324
REMARK  135  A    between atoms: _327  and  _329
REMARK  136  A    between atoms: _329  and  _330
REMARK  137  A    between atoms: _329  and  _332
REMARK  138  A    between atoms: _332  and  _333
REMARK  139  A    between atoms: _336  and  _338
REMARK  140  A    between atoms: _338  and  _339
REMARK  141  A    between atoms: _338  and  _341
REMARK  142  A    between atoms: _341  and  _342
REMARK  143  A    between atoms: _345  and  _347
REMARK  144  A    between atoms: _347  and  _348
REMARK  145  A    between atoms: _350  and  _352
REMARK  146  A    between atoms: _352  and  _353
REMARK  147  A    between atoms: _356  and  _358
REMARK  148  A    between atoms: _358  and  _359
REMARK  149  A    between atoms: _358  and  _361
REMARK  150  A    between atoms: _361  and  _362
REMARK  151  A    between atoms: _365  and  _367
REMARK  152  A    between atoms: _367  and  _368
REMARK  153  A    between atoms: _367  and  _370
REMARK  154  A    between atoms: _370  and  _371
REMARK  155  A    between atoms: _374  and  _376
REMARK  156  A    between atoms: _376  and  _377
REMARK  157  A    between atoms: _376  and  _379
REMARK  158  A    between atoms: _379  and  _380
REMARK  159  A    between atoms: _383  and  _385
REMARK  160  A    between atoms: _385  and  _386
REMARK  161  A    between atoms: _385  and  _388
REMARK  162  A    between atoms: _391  and  _393
REMARK  163  A    between atoms: _393  and  _394
REMARK  164  A    between atoms: _393  and  _396
REMARK  165  A    between atoms: _396  and  _397
REMARK  166  A    between atoms: _397  and  _398
REMARK  167  A    between atoms: _398  and  _399
REMARK  168  A    between atoms: _399  and  _400
REMARK  169  A    between atoms: _404  and  _406
REMARK  170  A    between atoms: _406  and  _407
REMARK  171  A    between atoms: _406  and  _409
REMARK  172  A    between atoms: _409  and  _410
REMARK  173  A    between atoms: _410  and  _411
REMARK  174  A    between atoms: _413  and  _415
REMARK  175  A    between atoms: _415  and  _416
REMARK  176  A    between atoms: _415  and  _418
REMARK  177  A    between atoms: _418  and  _419
REMARK  178  A    between atoms: _422  and  _424
REMARK  179  A    between atoms: _424  and  _425
REMARK  180  A    between atoms: _427  and  _429
REMARK  181  A    between atoms: _429  and  _430
REMARK  182  A    between atoms: _432  and  _434
REMARK  183  A    between atoms: _434  and  _435
REMARK  184  A    between atoms: _434  and  _437
REMARK  185  A    between atoms: _440  and  _442
REMARK  186  A    between atoms: _442  and  _443
REMARK  187  A    between atoms: _445  and  _447
REMARK  188  A    between atoms: _447  and  _448
REMARK  189  A    between atoms: _450  and  _452
REMARK  190  A    between atoms: _452  and  _453
REMARK  191  A    between atoms: _452  and  _455
REMARK  192  A    between atoms: _455  and  _456
REMARK  193  A    between atoms: _462  and  _464
REMARK  194  A    between atoms: _464  and  _465
REMARK  195  A    between atoms: _464  and  _467
REMARK  196  A    between atoms: _467  and  _468
REMARK  197  A    between atoms: _471  and  _473
REMARK  198  A    between atoms: _473  and  _474
REMARK  199  A    between atoms: _473  and  _476
REMARK  200  A    between atoms: _479  and  _481
REMARK  201  A    between atoms: _481  and  _482
REMARK  202  A    between atoms: _481  and  _484
REMARK  203  A    between atoms: _484  and  _485
REMARK  204  A    between atoms: _489  and  _490
REMARK  205  A    between atoms: _495  and  _497
REMARK  206  A    between atoms: _497  and  _498
REMARK  207  A    between atoms: _497  and  _500
REMARK  208  A    between atoms: _500  and  _501
REMARK  209  A    between atoms: _505  and  _506
REMARK  210  A    between atoms: _511  and  _513
REMARK  211  A    between atoms: _513  and  _514
REMARK  212  A    between atoms: _513  and  _516
REMARK  213  A    between atoms: _519  and  _521
REMARK  214  A    between atoms: _521  and  _522
REMARK  215  A    between atoms: _521  and  _524
REMARK  216  A    between atoms: _524  and  _525
REMARK  217  A    between atoms: _530  and  _532
REMARK  218  A    between atoms: _532  and  _533
REMARK  219  A    between atoms: _532  and  _535
REMARK  220  A    between atoms: _535  and  _536
REMARK  221  A    between atoms: _539  and  _541
REMARK  222  A    between atoms: _541  and  _542
REMARK  223  A    between atoms: _541  and  _544
REMARK  224  A    between atoms: _544  and  _545
REMARK  225  A    between atoms: _548  and  _550
REMARK  226  A    between atoms: _550  and  _551
REMARK  227  A    between atoms: _553  and  _555
REMARK  228  A    between atoms: _555  and  _556
REMARK  229  A    between atoms: _555  and  _558
REMARK  230  A    between atoms: _558  and  _559
REMARK  231  A    between atoms: _559  and  _560
REMARK  232  A    between atoms: _560  and  _561
REMARK  233  A    between atoms: _570  and  _572
REMARK  234  A    between atoms: _572  and  _573
REMARK  235  A    between atoms: _572  and  _575
REMARK  236  A    between atoms: _575  and  _576
REMARK                            x       y       z     vdW  Elec       q    Type
REMARK                         _______ _______ _______ _____ _____    ______ ____
ROOT
ATOM      1  O   HOH     1       1.792  22.026  13.554  0.00  0.00    +0.000 OA
ENDROOT
TORSDOF 0
REMARK  Name = ../refined-set-2016/2avq/2avq_pocket.pdb
REMARK  236 active torsions:
REMARK  status: ('A' for Active; 'I' for Inactive)
REMARK    1  A    between atoms: _1  and  _3
REMARK    2  A    between atoms: _3  and  _4
REMARK    3  A    between atoms: _3  and  _6
REMARK    4  A    between atoms: _6  and  _7
REMARK    5  A    between atoms: _7  and  _8
REMARK    6  A    between atoms: _8  and  _9
REMARK    7  A    between atoms: _18  and  _20
REMARK    8  A    between atoms: _20  and  _21
REMARK    9  A    between atoms: _20  and  _23
REMARK   10  A    between atoms: _23  and  _24
REMARK   11  A    between atoms: _27  and  _29
REMARK   12  A    between atoms: _29  and  _30
REMARK   13  A    between atoms: _29  and  _32
REMARK   14  A    between atoms: _32  and  _33
REMARK   15  A    between atoms: _36  and  _38
REMARK   16  A    between atoms: _38  and  _39
REMARK   17  A    between atoms: _38  and  _41
REMARK   18  A    between atoms: _41  and  _42
REMARK   19  A    between atoms: _45  and  _47
REMARK   20  A    between atoms: _47  and  _48
REMARK   21  A    between atoms: _47  and  _50
REMARK   22  A    between atoms: _50  and  _51
REMARK   23  A    between atoms: _54  and  _56
REMARK   24  A    between atoms: _56  and  _57
REMARK   25  A    between atoms: _56  and  _59
REMARK   26  A    between atoms: _59  and  _60
REMARK   27  A    between atoms: _63  and  _65
REMARK   28  A    between atoms: _65  and  _66
REMARK   29  A    between atoms: _68  and  _70
REMARK   30  A    between atoms: _70  and  _71
REMARK   31  A    between atoms: _74  and  _76
REMARK   32  A    between atoms: _76  and  _77
REMARK   33  A    between atoms: _76  and  _79
REMARK   34  A    between atoms: _79  and  _80
REMARK   35  A    between atoms: _83  and  _85
REMARK   36  A    between atoms: _85  and  _86
REMARK   37  A    between atoms: _85  and  _88
REMARK   38  A    between atoms: _88  and  _89
REMARK   39  A    between atoms: _92  and  _94
REMARK   40  A    between atoms: _94  and  _95
REMARK   41  A    between atoms: _94  and  _97
REMARK   42  A    between atoms: _97  and  _98
REMARK   43  A    between atoms: _101  and  _103
REMARK   44  A    between atoms: _103  and  _104
REMARK   45  A    between atoms: _103  and  _106
REMARK   46  A    between atoms: _109  and  _111
REMARK   47  A    between atoms: _111  and  _112
REMARK   48  A    between atoms: _111  and  _114
REMARK   49  A    between atoms: _114  and  _115
REMARK   50  A    between atoms: _115  and  _116
REMARK   51  A    between atoms: _116  and  _117
REMARK   52  A    between atoms: _117  and  _118
REMARK   53  A    between atoms: _122  and  _124
REMARK   54  A    between atoms: _124  and  _125
REMARK   55  A    between atoms: _124  and  _127
REMARK   56  A    between atoms: _127  and  _128
REMARK   57  A    between atoms: _128  and  _129
REMARK   58  A    between atoms: _131  and  _133
REMARK   59  A    between atoms: _133  and  _134
REMARK   60  A    between atoms: _133  and  _136
REMARK   61  A    between atoms: _136  and  _137
REMARK   62  A    between atoms: _140  and  _142
REMARK   63  A    between atoms: _142  and  _143
REMARK   64  A    between atoms: _145  and  _147
REMARK   65  A    between atoms: _147  and  _148
REMARK   66  A    between atoms: _150  and  _152
REMARK   67  A    between atoms: _152  and  _153
REMARK   68  A    between atoms: _152  and  _155
REMARK   69  A    between atoms: _158  and  _160
REMARK   70  A    between atoms: _160  and  _161
REMARK   71  A    between atoms: _163  and  _165
REMARK   72  A    between atoms: _165  and  _166
REMARK   73  A    between atoms: _168  and  _170
REMARK   74  A    between atoms: _170  and  _171
REMARK   75  A    between atoms: _170  and  _173
REMARK   76  A    between atoms: _173  and  _174
REMARK   77  A    between atoms: _180  and  _182
REMARK   78  A    between atoms: _182  and  _183
REMARK   79  A    between atoms: _182  and  _185
REMARK   80  A    between atoms: _185  and  _186
REMARK   81  A    between atoms: _189  and  _191
REMARK   82  A    between atoms: _191  and  _192
REMARK   83  A    between atoms: _191  and  _194
REMARK   84  A    between atoms: _197  and  _199
REMARK   85  A    between atoms: _199  and  _200
REMARK   86  A    between atoms: _199  and  _202
REMARK   87  A    between atoms: _202  and  _203
REMARK   88  A    between atoms: _206  and  _208
REMARK   89  A    between atoms: _208  and  _209
REMARK   90  A    between atoms: _208  and  _211
REMARK   91  A    between atoms: _211  and  _212
REMARK   92  A    between atoms: _216  and  _217
REMARK   93  A    between atoms: _222  and  _224
REMARK   94  A    between atoms: _224  and  _225
REMARK   95  A    between atoms: _224  and  _227
REMARK   96  A    between atoms: _230  and  _232
REMARK   97  A    between atoms: _232  and  _233
REMARK   98  A    between atoms: _232  and  _235
REMARK   99  A    between atoms: _235  and  _236
REMARK  100  A    between atoms: _241  and  _243
REMARK  101  A    between atoms: _243  and  _244
REMARK  102  A    between atoms: _243  and  _246
REMARK  103  A    between atoms: _246  and  _247
REMARK  104  A    between atoms: _250  and  _252
REMARK  105  A    between atoms: _252  and  _253
REMARK  106  A    between atoms: _252  and  _255
REMARK  107  A    between atoms: _255  and  _256
REMARK  108  A    between atoms: _259  and  _261
REMARK  109  A    between atoms: _261  and  _262
REMARK  110  A    between atoms: _264  and  _266
REMARK  111  A    between atoms: _266  and  _267
REMARK  112  A    between atoms: _266  and  _269
REMARK  113  A    between atoms: _269  and  _270
REMARK  114  A    between atoms: _270  and  _271
REMARK  115  A    between atoms: _271  and  _272
REMARK  116  A    between atoms: _281  and  _283
REMARK  117  A    between atoms: _283  and  _284
REMARK  118  A    between atoms: _283  and  _286
REMARK  119  A    between atoms: _286  and  _287
REMARK  120  A    between atoms: _292  and  _294
REMARK  121  A    between atoms: _294  and  _295
REMARK  122  A    between atoms: _294  and  _297
REMARK  123  A    between atoms: _297  and  _298
REMARK  124  A    between atoms: _298  and  _299
REMARK  125  A    between atoms: _299  and  _300
REMARK  126  A    between atoms: _302  and  _303
REMARK  127  A    between atoms: _309  and  _311
REMARK  128  A    between atoms: _311  and  _312
REMARK  129  A    between atoms: _311  and  _314
REMARK  130  A    between atoms: _314  and  _315
REMARK  131  A    between atoms: _318  and  _320
REMARK  132  A    between atoms: _320  and  _321
REMARK  133  A    between atoms: _320  and  _323
REMARK  134  A    between atoms: _323  and  _324
REMARK  135  A    between atoms: _327  and  _329
REMARK  136  A    between atoms: _329  and  _330
REMARK  137  A    between atoms: _329  and  _332
REMARK  138  A    between atoms: _332  and  _333
REMARK  139  A    between atoms: _336  and  _338
REMARK  140  A    between atoms: _338  and  _339
REMARK  141  A    between atoms: _338  and  _341
REMARK  142  A    between atoms: _341  and  _342
REMARK  143  A    between atoms: _345  and  _347
REMARK  144  A    between atoms: _347  and  _348
REMARK  145  A    between atoms: _350  and  _352
REMARK  146  A    between atoms: _352  and  _353
REMARK  147  A    between atoms: _356  and  _358
REMARK  148  A    between atoms: _358  and  _359
REMARK  149  A    between atoms: _358  and  _361
REMARK  150  A    between atoms: _361  and  _362
REMARK  151  A    between atoms: _365  and  _367
REMARK  152  A    between atoms: _367  and  _368
REMARK  153  A    between atoms: _367  and  _370
REMARK  154  A    between atoms: _370  and  _371
REMARK  155  A    between atoms: _374  and  _376
REMARK  156  A    between atoms: _376  and  _377
REMARK  157  A    between atoms: _376  and  _379
REMARK  158  A    between atoms: _379  and  _380
REMARK  159  A    between atoms: _383  and  _385
REMARK  160  A    between atoms: _385  and  _386
REMARK  161  A    between atoms: _385  and  _388
REMARK  162  A    between atoms: _391  and  _393
REMARK  163  A    between atoms: _393  and  _394
REMARK  164  A    between atoms: _393  and  _396
REMARK  165  A    between atoms: _396  and  _397
REMARK  166  A    between atoms: _397  and  _398
REMARK  167  A    between atoms: _398  and  _399
REMARK  168  A    between atoms: _399  and  _400
REMARK  169  A    between atoms: _404  and  _406
REMARK  170  A    between atoms: _406  and  _407
REMARK  171  A    between atoms: _406  and  _409
REMARK  172  A    between atoms: _409  and  _410
REMARK  173  A    between atoms: _410  and  _411
REMARK  174  A    between atoms: _413  and  _415
REMARK  175  A    between atoms: _415  and  _416
REMARK  176  A    between atoms: _415  and  _418
REMARK  177  A    between atoms: _418  and  _419
REMARK  178  A    between atoms: _422  and  _424
REMARK  179  A    between atoms: _424  and  _425
REMARK  180  A    between atoms: _427  and  _429
REMARK  181  A    between atoms: _429  and  _430
REMARK  182  A    between atoms: _432  and  _434
REMARK  183  A    between atoms: _434  and  _435
REMARK  184  A    between atoms: _434  and  _437
REMARK  185  A    between atoms: _440  and  _442
REMARK  186  A    between atoms: _442  and  _443
REMARK  187  A    between atoms: _445  and  _447
REMARK  188  A    between atoms: _447  and  _448
REMARK  189  A    between atoms: _450  and  _452
REMARK  190  A    between atoms: _452  and  _453
REMARK  191  A    between atoms: _452  and  _455
REMARK  192  A    between atoms: _455  and  _456
REMARK  193  A    between atoms: _462  and  _464
REMARK  194  A    between atoms: _464  and  _465
REMARK  195  A    between atoms: _464  and  _467
REMARK  196  A    between atoms: _467  and  _468
REMARK  197  A    between atoms: _471  and  _473
REMARK  198  A    between atoms: _473  and  _474
REMARK  199  A    between atoms: _473  and  _476
REMARK  200  A    between atoms: _479  and  _481
REMARK  201  A    between atoms: _481  and  _482
REMARK  202  A    between atoms: _481  and  _484
REMARK  203  A    between atoms: _484  and  _485
REMARK  204  A    between atoms: _489  and  _490
REMARK  205  A    between atoms: _495  and  _497
REMARK  206  A    between atoms: _497  and  _498
REMARK  207  A    between atoms: _497  and  _500
REMARK  208  A    between atoms: _500  and  _501
REMARK  209  A    between atoms: _505  and  _506
REMARK  210  A    between atoms: _511  and  _513
REMARK  211  A    between atoms: _513  and  _514
REMARK  212  A    between atoms: _513  and  _516
REMARK  213  A    between atoms: _519  and  _521
REMARK  214  A    between atoms: _521  and  _522
REMARK  215  A    between atoms: _521  and  _524
REMARK  216  A    between atoms: _524  and  _525
REMARK  217  A    between atoms: _530  and  _532
REMARK  218  A    between atoms: _532  and  _533
REMARK  219  A    between atoms: _532  and  _535
REMARK  220  A    between atoms: _535  and  _536
REMARK  221  A    between atoms: _539  and  _541
REMARK  222  A    between atoms: _541  and  _542
REMARK  223  A    between atoms: _541  and  _544
REMARK  224  A    between atoms: _544  and  _545
REMARK  225  A    between atoms: _548  and  _550
REMARK  226  A    between atoms: _550  and  _551
REMARK  227  A    between atoms: _553  and  _555
REMARK  228  A    between atoms: _555  and  _556
REMARK  229  A    between atoms: _555  and  _558
REMARK  230  A    between atoms: _558  and  _559
REMARK  231  A    between atoms: _559  and  _560
REMARK  232  A    between atoms: _560  and  _561
REMARK  233  A    between atoms: _570  and  _572
REMARK  234  A    between atoms: _572  and  _573
REMARK  235  A    between atoms: _572  and  _575
REMARK  236  A    between atoms: _575  and  _576
REMARK                            x       y       z     vdW  Elec       q    Type
REMARK                         _______ _______ _______ _____ _____    ______ ____
ROOT
ATOM      1  O   HOH     1      27.594  32.213  14.892  0.00  0.00    +0.000 OA
ENDROOT
TORSDOF 0
REMARK  Name = ../refined-set-2016/2avq/2avq_pocket.pdb
REMARK  236 active torsions:
REMARK  status: ('A' for Active; 'I' for Inactive)
REMARK    1  A    between atoms: _1  and  _3
REMARK    2  A    between atoms: _3  and  _4
REMARK    3  A    between atoms: _3  and  _6
REMARK    4  A    between atoms: _6  and  _7
REMARK    5  A    between atoms: _7  and  _8
REMARK    6  A    between atoms: _8  and  _9
REMARK    7  A    between atoms: _18  and  _20
REMARK    8  A    between atoms: _20  and  _21
REMARK    9  A    between atoms: _20  and  _23
REMARK   10  A    between atoms: _23  and  _24
REMARK   11  A    between atoms: _27  and  _29
REMARK   12  A    between atoms: _29  and  _30
REMARK   13  A    between atoms: _29  and  _32
REMARK   14  A    between atoms: _32  and  _33
REMARK   15  A    between atoms: _36  and  _38
REMARK   16  A    between atoms: _38  and  _39
REMARK   17  A    between atoms: _38  and  _41
REMARK   18  A    between atoms: _41  and  _42
REMARK   19  A    between atoms: _45  and  _47
REMARK   20  A    between atoms: _47  and  _48
REMARK   21  A    between atoms: _47  and  _50
REMARK   22  A    between atoms: _50  and  _51
REMARK   23  A    between atoms: _54  and  _56
REMARK   24  A    between atoms: _56  and  _57
REMARK   25  A    between atoms: _56  and  _59
REMARK   26  A    between atoms: _59  and  _60
REMARK   27  A    between atoms: _63  and  _65
REMARK   28  A    between atoms: _65  and  _66
REMARK   29  A    between atoms: _68  and  _70
REMARK   30  A    between atoms: _70  and  _71
REMARK   31  A    between atoms: _74  and  _76
REMARK   32  A    between atoms: _76  and  _77
REMARK   33  A    between atoms: _76  and  _79
REMARK   34  A    between atoms: _79  and  _80
REMARK   35  A    between atoms: _83  and  _85
REMARK   36  A    between atoms: _85  and  _86
REMARK   37  A    between atoms: _85  and  _88
REMARK   38  A    between atoms: _88  and  _89
REMARK   39  A    between atoms: _92  and  _94
REMARK   40  A    between atoms: _94  and  _95
REMARK   41  A    between atoms: _94  and  _97
REMARK   42  A    between atoms: _97  and  _98
REMARK   43  A    between atoms: _101  and  _103
REMARK   44  A    between atoms: _103  and  _104
REMARK   45  A    between atoms: _103  and  _106
REMARK   46  A    between atoms: _109  and  _111
REMARK   47  A    between atoms: _111  and  _112
REMARK   48  A    between atoms: _111  and  _114
REMARK   49  A    between atoms: _114  and  _115
REMARK   50  A    between atoms: _115  and  _116
REMARK   51  A    between atoms: _116  and  _117
REMARK   52  A    between atoms: _117  and  _118
REMARK   53  A    between atoms: _122  and  _124
REMARK   54  A    between atoms: _124  and  _125
REMARK   55  A    between atoms: _124  and  _127
REMARK   56  A    between atoms: _127  and  _128
REMARK   57  A    between atoms: _128  and  _129
REMARK   58  A    between atoms: _131  and  _133
REMARK   59  A    between atoms: _133  and  _134
REMARK   60  A    between atoms: _133  and  _136
REMARK   61  A    between atoms: _136  and  _137
REMARK   62  A    between atoms: _140  and  _142
REMARK   63  A    between atoms: _142  and  _143
REMARK   64  A    between atoms: _145  and  _147
REMARK   65  A    between atoms: _147  and  _148
REMARK   66  A    between atoms: _150  and  _152
REMARK   67  A    between atoms: _152  and  _153
REMARK   68  A    between atoms: _152  and  _155
REMARK   69  A    between atoms: _158  and  _160
REMARK   70  A    between atoms: _160  and  _161
REMARK   71  A    between atoms: _163  and  _165
REMARK   72  A    between atoms: _165  and  _166
REMARK   73  A    between atoms: _168  and  _170
REMARK   74  A    between atoms: _170  and  _171
REMARK   75  A    between atoms: _170  and  _173
REMARK   76  A    between atoms: _173  and  _174
REMARK   77  A    between atoms: _180  and  _182
REMARK   78  A    between atoms: _182  and  _183
REMARK   79  A    between atoms: _182  and  _185
REMARK   80  A    between atoms: _185  and  _186
REMARK   81  A    between atoms: _189  and  _191
REMARK   82  A    between atoms: _191  and  _192
REMARK   83  A    between atoms: _191  and  _194
REMARK   84  A    between atoms: _197  and  _199
REMARK   85  A    between atoms: _199  and  _200
REMARK   86  A    between atoms: _199  and  _202
REMARK   87  A    between atoms: _202  and  _203
REMARK   88  A    between atoms: _206  and  _208
REMARK   89  A    between atoms: _208  and  _209
REMARK   90  A    between atoms: _208  and  _211
REMARK   91  A    between atoms: _211  and  _212
REMARK   92  A    between atoms: _216  and  _217
REMARK   93  A    between atoms: _222  and  _224
REMARK   94  A    between atoms: _224  and  _225
REMARK   95  A    between atoms: _224  and  _227
REMARK   96  A    between atoms: _230  and  _232
REMARK   97  A    between atoms: _232  and  _233
REMARK   98  A    between atoms: _232  and  _235
REMARK   99  A    between atoms: _235  and  _236
REMARK  100  A    between atoms: _241  and  _243
REMARK  101  A    between atoms: _243  and  _244
REMARK  102  A    between atoms: _243  and  _246
REMARK  103  A    between atoms: _246  and  _247
REMARK  104  A    between atoms: _250  and  _252
REMARK  105  A    between atoms: _252  and  _253
REMARK  106  A    between atoms: _252  and  _255
REMARK  107  A    between atoms: _255  and  _256
REMARK  108  A    between atoms: _259  and  _261
REMARK  109  A    between atoms: _261  and  _262
REMARK  110  A    between atoms: _264  and  _266
REMARK  111  A    between atoms: _266  and  _267
REMARK  112  A    between atoms: _266  and  _269
REMARK  113  A    between atoms: _269  and  _270
REMARK  114  A    between atoms: _270  and  _271
REMARK  115  A    between atoms: _271  and  _272
REMARK  116  A    between atoms: _281  and  _283
REMARK  117  A    between atoms: _283  and  _284
REMARK  118  A    between atoms: _283  and  _286
REMARK  119  A    between atoms: _286  and  _287
REMARK  120  A    between atoms: _292  and  _294
REMARK  121  A    between atoms: _294  and  _295
REMARK  122  A    between atoms: _294  and  _297
REMARK  123  A    between atoms: _297  and  _298
REMARK  124  A    between atoms: _298  and  _299
REMARK  125  A    between atoms: _299  and  _300
REMARK  126  A    between atoms: _302  and  _303
REMARK  127  A    between atoms: _309  and  _311
REMARK  128  A    between atoms: _311  and  _312
REMARK  129  A    between atoms: _311  and  _314
REMARK  130  A    between atoms: _314  and  _315
REMARK  131  A    between atoms: _318  and  _320
REMARK  132  A    between atoms: _320  and  _321
REMARK  133  A    between atoms: _320  and  _323
REMARK  134  A    between atoms: _323  and  _324
REMARK  135  A    between atoms: _327  and  _329
REMARK  136  A    between atoms: _329  and  _330
REMARK  137  A    between atoms: _329  and  _332
REMARK  138  A    between atoms: _332  and  _333
REMARK  139  A    between atoms: _336  and  _338
REMARK  140  A    between atoms: _338  and  _339
REMARK  141  A    between atoms: _338  and  _341
REMARK  142  A    between atoms: _341  and  _342
REMARK  143  A    between atoms: _345  and  _347
REMARK  144  A    between atoms: _347  and  _348
REMARK  145  A    between atoms: _350  and  _352
REMARK  146  A    between atoms: _352  and  _353
REMARK  147  A    between atoms: _356  and  _358
REMARK  148  A    between atoms: _358  and  _359
REMARK  149  A    between atoms: _358  and  _361
REMARK  150  A    between atoms: _361  and  _362
REMARK  151  A    between atoms: _365  and  _367
REMARK  152  A    between atoms: _367  and  _368
REMARK  153  A    between atoms: _367  and  _370
REMARK  154  A    between atoms: _370  and  _371
REMARK  155  A    between atoms: _374  and  _376
REMARK  156  A    between atoms: _376  and  _377
REMARK  157  A    between atoms: _376  and  _379
REMARK  158  A    between atoms: _379  and  _380
REMARK  159  A    between atoms: _383  and  _385
REMARK  160  A    between atoms: _385  and  _386
REMARK  161  A    between atoms: _385  and  _388
REMARK  162  A    between atoms: _391  and  _393
REMARK  163  A    between atoms: _393  and  _394
REMARK  164  A    between atoms: _393  and  _396
REMARK  165  A    between atoms: _396  and  _397
REMARK  166  A    between atoms: _397  and  _398
REMARK  167  A    between atoms: _398  and  _399
REMARK  168  A    between atoms: _399  and  _400
REMARK  169  A    between atoms: _404  and  _406
REMARK  170  A    between atoms: _406  and  _407
REMARK  171  A    between atoms: _406  and  _409
REMARK  172  A    between atoms: _409  and  _410
REMARK  173  A    between atoms: _410  and  _411
REMARK  174  A    between atoms: _413  and  _415
REMARK  175  A    between atoms: _415  and  _416
REMARK  176  A    between atoms: _415  and  _418
REMARK  177  A    between atoms: _418  and  _419
REMARK  178  A    between atoms: _422  and  _424
REMARK  179  A    between atoms: _424  and  _425
REMARK  180  A    between atoms: _427  and  _429
REMARK  181  A    between atoms: _429  and  _430
REMARK  182  A    between atoms: _432  and  _434
REMARK  183  A    between atoms: _434  and  _435
REMARK  184  A    between atoms: _434  and  _437
REMARK  185  A    between atoms: _440  and  _442
REMARK  186  A    between atoms: _442  and  _443
REMARK  187  A    between atoms: _445  and  _447
REMARK  188  A    between atoms: _447  and  _448
REMARK  189  A    between atoms: _450  and  _452
REMARK  190  A    between atoms: _452  and  _453
REMARK  191  A    between atoms: _452  and  _455
REMARK  192  A    between atoms: _455  and  _456
REMARK  193  A    between atoms: _462  and  _464
REMARK  194  A    between atoms: _464  and  _465
REMARK  195  A    between atoms: _464  and  _467
REMARK  196  A    between atoms: _467  and  _468
REMARK  197  A    between atoms: _471  and  _473
REMARK  198  A    between atoms: _473  and  _474
REMARK  199  A    between atoms: _473  and  _476
REMARK  200  A    between atoms: _479  and  _481
REMARK  201  A    between atoms: _481  and  _482
REMARK  202  A    between atoms: _481  and  _484
REMARK  203  A    between atoms: _484  and  _485
REMARK  204  A    between atoms: _489  and  _490
REMARK  205  A    between atoms: _495  and  _497
REMARK  206  A    between atoms: _497  and  _498
REMARK  207  A    between atoms: _497  and  _500
REMARK  208  A    between atoms: _500  and  _501
REMARK  209  A    between atoms: _505  and  _506
REMARK  210  A    between atoms: _511  and  _513
REMARK  211  A    between atoms: _513  and  _514
REMARK  212  A    between atoms: _513  and  _516
REMARK  213  A    between atoms: _519  and  _521
REMARK  214  A    between atoms: _521  and  _522
REMARK  215  A    between atoms: _521  and  _524
REMARK  216  A    between atoms: _524  and  _525
REMARK  217  A    between atoms: _530  and  _532
REMARK  218  A    between atoms: _532  and  _533
REMARK  219  A    between atoms: _532  and  _535
REMARK  220  A    between atoms: _535  and  _536
REMARK  221  A    between atoms: _539  and  _541
REMARK  222  A    between atoms: _541  and  _542
REMARK  223  A    between atoms: _541  and  _544
REMARK  224  A    between atoms: _544  and  _545
REMARK  225  A    between atoms: _548  and  _550
REMARK  226  A    between atoms: _550  and  _551
REMARK  227  A    between atoms: _553  and  _555
REMARK  228  A    between atoms: _555  and  _556
REMARK  229  A    between atoms: _555  and  _558
REMARK  230  A    between atoms: _558  and  _559
REMARK  231  A    between atoms: _559  and  _560
REMARK  232  A    between atoms: _560  and  _561
REMARK  233  A    between atoms: _570  and  _572
REMARK  234  A    between atoms: _572  and  _573
REMARK  235  A    between atoms: _572  and  _575
REMARK  236  A    between atoms: _575  and  _576
REMARK                            x       y       z     vdW  Elec       q    Type
REMARK                         _______ _______ _______ _____ _____    ______ ____
ROOT
ATOM      1  O   HOH     1      27.846  30.577  18.379  0.00  0.00    +0.000 OA
ENDROOT
TORSDOF 0
REMARK  Name = ../refined-set-2016/2avq/2avq_pocket.pdb
REMARK  236 active torsions:
REMARK  status: ('A' for Active; 'I' for Inactive)
REMARK    1  A    between atoms: _1  and  _3
REMARK    2  A    between atoms: _3  and  _4
REMARK    3  A    between atoms: _3  and  _6
REMARK    4  A    between atoms: _6  and  _7
REMARK    5  A    between atoms: _7  and  _8
REMARK    6  A    between atoms: _8  and  _9
REMARK    7  A    between atoms: _18  and  _20
REMARK    8  A    between atoms: _20  and  _21
REMARK    9  A    between atoms: _20  and  _23
REMARK   10  A    between atoms: _23  and  _24
REMARK   11  A    between atoms: _27  and  _29
REMARK   12  A    between atoms: _29  and  _30
REMARK   13  A    between atoms: _29  and  _32
REMARK   14  A    between atoms: _32  and  _33
REMARK   15  A    between atoms: _36  and  _38
REMARK   16  A    between atoms: _38  and  _39
REMARK   17  A    between atoms: _38  and  _41
REMARK   18  A    between atoms: _41  and  _42
REMARK   19  A    between atoms: _45  and  _47
REMARK   20  A    between atoms: _47  and  _48
REMARK   21  A    between atoms: _47  and  _50
REMARK   22  A    between atoms: _50  and  _51
REMARK   23  A    between atoms: _54  and  _56
REMARK   24  A    between atoms: _56  and  _57
REMARK   25  A    between atoms: _56  and  _59
REMARK   26  A    between atoms: _59  and  _60
REMARK   27  A    between atoms: _63  and  _65
REMARK   28  A    between atoms: _65  and  _66
REMARK   29  A    between atoms: _68  and  _70
REMARK   30  A    between atoms: _70  and  _71
REMARK   31  A    between atoms: _74  and  _76
REMARK   32  A    between atoms: _76  and  _77
REMARK   33  A    between atoms: _76  and  _79
REMARK   34  A    between atoms: _79  and  _80
REMARK   35  A    between atoms: _83  and  _85
REMARK   36  A    between atoms: _85  and  _86
REMARK   37  A    between atoms: _85  and  _88
REMARK   38  A    between atoms: _88  and  _89
REMARK   39  A    between atoms: _92  and  _94
REMARK   40  A    between atoms: _94  and  _95
REMARK   41  A    between atoms: _94  and  _97
REMARK   42  A    between atoms: _97  and  _98
REMARK   43  A    between atoms: _101  and  _103
REMARK   44  A    between atoms: _103  and  _104
REMARK   45  A    between atoms: _103  and  _106
REMARK   46  A    between atoms: _109  and  _111
REMARK   47  A    between atoms: _111  and  _112
REMARK   48  A    between atoms: _111  and  _114
REMARK   49  A    between atoms: _114  and  _115
REMARK   50  A    between atoms: _115  and  _116
REMARK   51  A    between atoms: _116  and  _117
REMARK   52  A    between atoms: _117  and  _118
REMARK   53  A    between atoms: _122  and  _124
REMARK   54  A    between atoms: _124  and  _125
REMARK   55  A    between atoms: _124  and  _127
REMARK   56  A    between atoms: _127  and  _128
REMARK   57  A    between atoms: _128  and  _129
REMARK   58  A    between atoms: _131  and  _133
REMARK   59  A    between atoms: _133  and  _134
REMARK   60  A    between atoms: _133  and  _136
REMARK   61  A    between atoms: _136  and  _137
REMARK   62  A    between atoms: _140  and  _142
REMARK   63  A    between atoms: _142  and  _143
REMARK   64  A    between atoms: _145  and  _147
REMARK   65  A    between atoms: _147  and  _148
REMARK   66  A    between atoms: _150  and  _152
REMARK   67  A    between atoms: _152  and  _153
REMARK   68  A    between atoms: _152  and  _155
REMARK   69  A    between atoms: _158  and  _160
REMARK   70  A    between atoms: _160  and  _161
REMARK   71  A    between atoms: _163  and  _165
REMARK   72  A    between atoms: _165  and  _166
REMARK   73  A    between atoms: _168  and  _170
REMARK   74  A    between atoms: _170  and  _171
REMARK   75  A    between atoms: _170  and  _173
REMARK   76  A    between atoms: _173  and  _174
REMARK   77  A    between atoms: _180  and  _182
REMARK   78  A    between atoms: _182  and  _183
REMARK   79  A    between atoms: _182  and  _185
REMARK   80  A    between atoms: _185  and  _186
REMARK   81  A    between atoms: _189  and  _191
REMARK   82  A    between atoms: _191  and  _192
REMARK   83  A    between atoms: _191  and  _194
REMARK   84  A    between atoms: _197  and  _199
REMARK   85  A    between atoms: _199  and  _200
REMARK   86  A    between atoms: _199  and  _202
REMARK   87  A    between atoms: _202  and  _203
REMARK   88  A    between atoms: _206  and  _208
REMARK   89  A    between atoms: _208  and  _209
REMARK   90  A    between atoms: _208  and  _211
REMARK   91  A    between atoms: _211  and  _212
REMARK   92  A    between atoms: _216  and  _217
REMARK   93  A    between atoms: _222  and  _224
REMARK   94  A    between atoms: _224  and  _225
REMARK   95  A    between atoms: _224  and  _227
REMARK   96  A    between atoms: _230  and  _232
REMARK   97  A    between atoms: _232  and  _233
REMARK   98  A    between atoms: _232  and  _235
REMARK   99  A    between atoms: _235  and  _236
REMARK  100  A    between atoms: _241  and  _243
REMARK  101  A    between atoms: _243  and  _244
REMARK  102  A    between atoms: _243  and  _246
REMARK  103  A    between atoms: _246  and  _247
REMARK  104  A    between atoms: _250  and  _252
REMARK  105  A    between atoms: _252  and  _253
REMARK  106  A    between atoms: _252  and  _255
REMARK  107  A    between atoms: _255  and  _256
REMARK  108  A    between atoms: _259  and  _261
REMARK  109  A    between atoms: _261  and  _262
REMARK  110  A    between atoms: _264  and  _266
REMARK  111  A    between atoms: _266  and  _267
REMARK  112  A    between atoms: _266  and  _269
REMARK  113  A    between atoms: _269  and  _270
REMARK  114  A    between atoms: _270  and  _271
REMARK  115  A    between atoms: _271  and  _272
REMARK  116  A    between atoms: _281  and  _283
REMARK  117  A    between atoms: _283  and  _284
REMARK  118  A    between atoms: _283  and  _286
REMARK  119  A    between atoms: _286  and  _287
REMARK  120  A    between atoms: _292  and  _294
REMARK  121  A    between atoms: _294  and  _295
REMARK  122  A    between atoms: _294  and  _297
REMARK  123  A    between atoms: _297  and  _298
REMARK  124  A    between atoms: _298  and  _299
REMARK  125  A    between atoms: _299  and  _300
REMARK  126  A    between atoms: _302  and  _303
REMARK  127  A    between atoms: _309  and  _311
REMARK  128  A    between atoms: _311  and  _312
REMARK  129  A    between atoms: _311  and  _314
REMARK  130  A    between atoms: _314  and  _315
REMARK  131  A    between atoms: _318  and  _320
REMARK  132  A    between atoms: _320  and  _321
REMARK  133  A    between atoms: _320  and  _323
REMARK  134  A    between atoms: _323  and  _324
REMARK  135  A    between atoms: _327  and  _329
REMARK  136  A    between atoms: _329  and  _330
REMARK  137  A    between atoms: _329  and  _332
REMARK  138  A    between atoms: _332  and  _333
REMARK  139  A    between atoms: _336  and  _338
REMARK  140  A    between atoms: _338  and  _339
REMARK  141  A    between atoms: _338  and  _341
REMARK  142  A    between atoms: _341  and  _342
REMARK  143  A    between atoms: _345  and  _347
REMARK  144  A    between atoms: _347  and  _348
REMARK  145  A    between atoms: _350  and  _352
REMARK  146  A    between atoms: _352  and  _353
REMARK  147  A    between atoms: _356  and  _358
REMARK  148  A    between atoms: _358  and  _359
REMARK  149  A    between atoms: _358  and  _361
REMARK  150  A    between atoms: _361  and  _362
REMARK  151  A    between atoms: _365  and  _367
REMARK  152  A    between atoms: _367  and  _368
REMARK  153  A    between atoms: _367  and  _370
REMARK  154  A    between atoms: _370  and  _371
REMARK  155  A    between atoms: _374  and  _376
REMARK  156  A    between atoms: _376  and  _377
REMARK  157  A    between atoms: _376  and  _379
REMARK  158  A    between atoms: _379  and  _380
REMARK  159  A    between atoms: _383  and  _385
REMARK  160  A    between atoms: _385  and  _386
REMARK  161  A    between atoms: _385  and  _388
REMARK  162  A    between atoms: _391  and  _393
REMARK  163  A    between atoms: _393  and  _394
REMARK  164  A    between atoms: _393  and  _396
REMARK  165  A    between atoms: _396  and  _397
REMARK  166  A    between atoms: _397  and  _398
REMARK  167  A    between atoms: _398  and  _399
REMARK  168  A    between atoms: _399  and  _400
REMARK  169  A    between atoms: _404  and  _406
REMARK  170  A    between atoms: _406  and  _407
REMARK  171  A    between atoms: _406  and  _409
REMARK  172  A    between atoms: _409  and  _410
REMARK  173  A    between atoms: _410  and  _411
REMARK  174  A    between atoms: _413  and  _415
REMARK  175  A    between atoms: _415  and  _416
REMARK  176  A    between atoms: _415  and  _418
REMARK  177  A    between atoms: _418  and  _419
REMARK  178  A    between atoms: _422  and  _424
REMARK  179  A    between atoms: _424  and  _425
REMARK  180  A    between atoms: _427  and  _429
REMARK  181  A    between atoms: _429  and  _430
REMARK  182  A    between atoms: _432  and  _434
REMARK  183  A    between atoms: _434  and  _435
REMARK  184  A    between atoms: _434  and  _437
REMARK  185  A    between atoms: _440  and  _442
REMARK  186  A    between atoms: _442  and  _443
REMARK  187  A    between atoms: _445  and  _447
REMARK  188  A    between atoms: _447  and  _448
REMARK  189  A    between atoms: _450  and  _452
REMARK  190  A    between atoms: _452  and  _453
REMARK  191  A    between atoms: _452  and  _455
REMARK  192  A    between atoms: _455  and  _456
REMARK  193  A    between atoms: _462  and  _464
REMARK  194  A    between atoms: _464  and  _465
REMARK  195  A    between atoms: _464  and  _467
REMARK  196  A    between atoms: _467  and  _468
REMARK  197  A    between atoms: _471  and  _473
REMARK  198  A    between atoms: _473  and  _474
REMARK  199  A    between atoms: _473  and  _476
REMARK  200  A    between atoms: _479  and  _481
REMARK  201  A    between atoms: _481  and  _482
REMARK  202  A    between atoms: _481  and  _484
REMARK  203  A    between atoms: _484  and  _485
REMARK  204  A    between atoms: _489  and  _490
REMARK  205  A    between atoms: _495  and  _497
REMARK  206  A    between atoms: _497  and  _498
REMARK  207  A    between atoms: _497  and  _500
REMARK  208  A    between atoms: _500  and  _501
REMARK  209  A    between atoms: _505  and  _506
REMARK  210  A    between atoms: _511  and  _513
REMARK  211  A    between atoms: _513  and  _514
REMARK  212  A    between atoms: _513  and  _516
REMARK  213  A    between atoms: _519  and  _521
REMARK  214  A    between atoms: _521  and  _522
REMARK  215  A    between atoms: _521  and  _524
REMARK  216  A    between atoms: _524  and  _525
REMARK  217  A    between atoms: _530  and  _532
REMARK  218  A    between atoms: _532  and  _533
REMARK  219  A    between atoms: _532  and  _535
REMARK  220  A    between atoms: _535  and  _536
REMARK  221  A    between atoms: _539  and  _541
REMARK  222  A    between atoms: _541  and  _542
REMARK  223  A    between atoms: _541  and  _544
REMARK  224  A    between atoms: _544  and  _545
REMARK  225  A    between atoms: _548  and  _550
REMARK  226  A    between atoms: _550  and  _551
REMARK  227  A    between atoms: _553  and  _555
REMARK  228  A    between atoms: _555  and  _556
REMARK  229  A    between atoms: _555  and  _558
REMARK  230  A    between atoms: _558  and  _559
REMARK  231  A    between atoms: _559  and  _560
REMARK  232  A    between atoms: _560  and  _561
REMARK  233  A    between atoms: _570  and  _572
REMARK  234  A    between atoms: _572  and  _573
REMARK  235  A    between atoms: _572  and  _575
REMARK  236  A    between atoms: _575  and  _576
REMARK                            x       y       z     vdW  Elec       q    Type
REMARK                         _______ _______ _______ _____ _____    ______ ____
ROOT
ATOM      1  O   HOH     1       6.809  15.566  14.077  0.00  0.00    +0.000 OA
ENDROOT
TORSDOF 0
REMARK  Name = ../refined-set-2016/2avq/2avq_pocket.pdb
REMARK  236 active torsions:
REMARK  status: ('A' for Active; 'I' for Inactive)
REMARK    1  A    between atoms: _1  and  _3
REMARK    2  A    between atoms: _3  and  _4
REMARK    3  A    between atoms: _3  and  _6
REMARK    4  A    between atoms: _6  and  _7
REMARK    5  A    between atoms: _7  and  _8
REMARK    6  A    between atoms: _8  and  _9
REMARK    7  A    between atoms: _18  and  _20
REMARK    8  A    between atoms: _20  and  _21
REMARK    9  A    between atoms: _20  and  _23
REMARK   10  A    between atoms: _23  and  _24
REMARK   11  A    between atoms: _27  and  _29
REMARK   12  A    between atoms: _29  and  _30
REMARK   13  A    between atoms: _29  and  _32
REMARK   14  A    between atoms: _32  and  _33
REMARK   15  A    between atoms: _36  and  _38
REMARK   16  A    between atoms: _38  and  _39
REMARK   17  A    between atoms: _38  and  _41
REMARK   18  A    between atoms: _41  and  _42
REMARK   19  A    between atoms: _45  and  _47
REMARK   20  A    between atoms: _47  and  _48
REMARK   21  A    between atoms: _47  and  _50
REMARK   22  A    between atoms: _50  and  _51
REMARK   23  A    between atoms: _54  and  _56
REMARK   24  A    between atoms: _56  and  _57
REMARK   25  A    between atoms: _56  and  _59
REMARK   26  A    between atoms: _59  and  _60
REMARK   27  A    between atoms: _63  and  _65
REMARK   28  A    between atoms: _65  and  _66
REMARK   29  A    between atoms: _68  and  _70
REMARK   30  A    between atoms: _70  and  _71
REMARK   31  A    between atoms: _74  and  _76
REMARK   32  A    between atoms: _76  and  _77
REMARK   33  A    between atoms: _76  and  _79
REMARK   34  A    between atoms: _79  and  _80
REMARK   35  A    between atoms: _83  and  _85
REMARK   36  A    between atoms: _85  and  _86
REMARK   37  A    between atoms: _85  and  _88
REMARK   38  A    between atoms: _88  and  _89
REMARK   39  A    between atoms: _92  and  _94
REMARK   40  A    between atoms: _94  and  _95
REMARK   41  A    between atoms: _94  and  _97
REMARK   42  A    between atoms: _97  and  _98
REMARK   43  A    between atoms: _101  and  _103
REMARK   44  A    between atoms: _103  and  _104
REMARK   45  A    between atoms: _103  and  _106
REMARK   46  A    between atoms: _109  and  _111
REMARK   47  A    between atoms: _111  and  _112
REMARK   48  A    between atoms: _111  and  _114
REMARK   49  A    between atoms: _114  and  _115
REMARK   50  A    between atoms: _115  and  _116
REMARK   51  A    between atoms: _116  and  _117
REMARK   52  A    between atoms: _117  and  _118
REMARK   53  A    between atoms: _122  and  _124
REMARK   54  A    between atoms: _124  and  _125
REMARK   55  A    between atoms: _124  and  _127
REMARK   56  A    between atoms: _127  and  _128
REMARK   57  A    between atoms: _128  and  _129
REMARK   58  A    between atoms: _131  and  _133
REMARK   59  A    between atoms: _133  and  _134
REMARK   60  A    between atoms: _133  and  _136
REMARK   61  A    between atoms: _136  and  _137
REMARK   62  A    between atoms: _140  and  _142
REMARK   63  A    between atoms: _142  and  _143
REMARK   64  A    between atoms: _145  and  _147
REMARK   65  A    between atoms: _147  and  _148
REMARK   66  A    between atoms: _150  and  _152
REMARK   67  A    between atoms: _152  and  _153
REMARK   68  A    between atoms: _152  and  _155
REMARK   69  A    between atoms: _158  and  _160
REMARK   70  A    between atoms: _160  and  _161
REMARK   71  A    between atoms: _163  and  _165
REMARK   72  A    between atoms: _165  and  _166
REMARK   73  A    between atoms: _168  and  _170
REMARK   74  A    between atoms: _170  and  _171
REMARK   75  A    between atoms: _170  and  _173
REMARK   76  A    between atoms: _173  and  _174
REMARK   77  A    between atoms: _180  and  _182
REMARK   78  A    between atoms: _182  and  _183
REMARK   79  A    between atoms: _182  and  _185
REMARK   80  A    between atoms: _185  and  _186
REMARK   81  A    between atoms: _189  and  _191
REMARK   82  A    between atoms: _191  and  _192
REMARK   83  A    between atoms: _191  and  _194
REMARK   84  A    between atoms: _197  and  _199
REMARK   85  A    between atoms: _199  and  _200
REMARK   86  A    between atoms: _199  and  _202
REMARK   87  A    between atoms: _202  and  _203
REMARK   88  A    between atoms: _206  and  _208
REMARK   89  A    between atoms: _208  and  _209
REMARK   90  A    between atoms: _208  and  _211
REMARK   91  A    between atoms: _211  and  _212
REMARK   92  A    between atoms: _216  and  _217
REMARK   93  A    between atoms: _222  and  _224
REMARK   94  A    between atoms: _224  and  _225
REMARK   95  A    between atoms: _224  and  _227
REMARK   96  A    between atoms: _230  and  _232
REMARK   97  A    between atoms: _232  and  _233
REMARK   98  A    between atoms: _232  and  _235
REMARK   99  A    between atoms: _235  and  _236
REMARK  100  A    between atoms: _241  and  _243
REMARK  101  A    between atoms: _243  and  _244
REMARK  102  A    between atoms: _243  and  _246
REMARK  103  A    between atoms: _246  and  _247
REMARK  104  A    between atoms: _250  and  _252
REMARK  105  A    between atoms: _252  and  _253
REMARK  106  A    between atoms: _252  and  _255
REMARK  107  A    between atoms: _255  and  _256
REMARK  108  A    between atoms: _259  and  _261
REMARK  109  A    between atoms: _261  and  _262
REMARK  110  A    between atoms: _264  and  _266
REMARK  111  A    between atoms: _266  and  _267
REMARK  112  A    between atoms: _266  and  _269
REMARK  113  A    between atoms: _269  and  _270
REMARK  114  A    between atoms: _270  and  _271
REMARK  115  A    between atoms: _271  and  _272
REMARK  116  A    between atoms: _281  and  _283
REMARK  117  A    between atoms: _283  and  _284
REMARK  118  A    between atoms: _283  and  _286
REMARK  119  A    between atoms: _286  and  _287
REMARK  120  A    between atoms: _292  and  _294
REMARK  121  A    between atoms: _294  and  _295
REMARK  122  A    between atoms: _294  and  _297
REMARK  123  A    between atoms: _297  and  _298
REMARK  124  A    between atoms: _298  and  _299
REMARK  125  A    between atoms: _299  and  _300
REMARK  126  A    between atoms: _302  and  _303
REMARK  127  A    between atoms: _309  and  _311
REMARK  128  A    between atoms: _311  and  _312
REMARK  129  A    between atoms: _311  and  _314
REMARK  130  A    between atoms: _314  and  _315
REMARK  131  A    between atoms: _318  and  _320
REMARK  132  A    between atoms: _320  and  _321
REMARK  133  A    between atoms: _320  and  _323
REMARK  134  A    between atoms: _323  and  _324
REMARK  135  A    between atoms: _327  and  _329
REMARK  136  A    between atoms: _329  and  _330
REMARK  137  A    between atoms: _329  and  _332
REMARK  138  A    between atoms: _332  and  _333
REMARK  139  A    between atoms: _336  and  _338
REMARK  140  A    between atoms: _338  and  _339
REMARK  141  A    between atoms: _338  and  _341
REMARK  142  A    between atoms: _341  and  _342
REMARK  143  A    between atoms: _345  and  _347
REMARK  144  A    between atoms: _347  and  _348
REMARK  145  A    between atoms: _350  and  _352
REMARK  146  A    between atoms: _352  and  _353
REMARK  147  A    between atoms: _356  and  _358
REMARK  148  A    between atoms: _358  and  _359
REMARK  149  A    between atoms: _358  and  _361
REMARK  150  A    between atoms: _361  and  _362
REMARK  151  A    between atoms: _365  and  _367
REMARK  152  A    between atoms: _367  and  _368
REMARK  153  A    between atoms: _367  and  _370
REMARK  154  A    between atoms: _370  and  _371
REMARK  155  A    between atoms: _374  and  _376
REMARK  156  A    between atoms: _376  and  _377
REMARK  157  A    between atoms: _376  and  _379
REMARK  158  A    between atoms: _379  and  _380
REMARK  159  A    between atoms: _383  and  _385
REMARK  160  A    between atoms: _385  and  _386
REMARK  161  A    between atoms: _385  and  _388
REMARK  162  A    between atoms: _391  and  _393
REMARK  163  A    between atoms: _393  and  _394
REMARK  164  A    between atoms: _393  and  _396
REMARK  165  A    between atoms: _396  and  _397
REMARK  166  A    between atoms: _397  and  _398
REMARK  167  A    between atoms: _398  and  _399
REMARK  168  A    between atoms: _399  and  _400
REMARK  169  A    between atoms: _404  and  _406
REMARK  170  A    between atoms: _406  and  _407
REMARK  171  A    between atoms: _406  and  _409
REMARK  172  A    between atoms: _409  and  _410
REMARK  173  A    between atoms: _410  and  _411
REMARK  174  A    between atoms: _413  and  _415
REMARK  175  A    between atoms: _415  and  _416
REMARK  176  A    between atoms: _415  and  _418
REMARK  177  A    between atoms: _418  and  _419
REMARK  178  A    between atoms: _422  and  _424
REMARK  179  A    between atoms: _424  and  _425
REMARK  180  A    between atoms: _427  and  _429
REMARK  181  A    between atoms: _429  and  _430
REMARK  182  A    between atoms: _432  and  _434
REMARK  183  A    between atoms: _434  and  _435
REMARK  184  A    between atoms: _434  and  _437
REMARK  185  A    between atoms: _440  and  _442
REMARK  186  A    between atoms: _442  and  _443
REMARK  187  A    between atoms: _445  and  _447
REMARK  188  A    between atoms: _447  and  _448
REMARK  189  A    between atoms: _450  and  _452
REMARK  190  A    between atoms: _452  and  _453
REMARK  191  A    between atoms: _452  and  _455
REMARK  192  A    between atoms: _455  and  _456
REMARK  193  A    between atoms: _462  and  _464
REMARK  194  A    between atoms: _464  and  _465
REMARK  195  A    between atoms: _464  and  _467
REMARK  196  A    between atoms: _467  and  _468
REMARK  197  A    between atoms: _471  and  _473
REMARK  198  A    between atoms: _473  and  _474
REMARK  199  A    between atoms: _473  and  _476
REMARK  200  A    between atoms: _479  and  _481
REMARK  201  A    between atoms: _481  and  _482
REMARK  202  A    between atoms: _481  and  _484
REMARK  203  A    between atoms: _484  and  _485
REMARK  204  A    between atoms: _489  and  _490
REMARK  205  A    between atoms: _495  and  _497
REMARK  206  A    between atoms: _497  and  _498
REMARK  207  A    between atoms: _497  and  _500
REMARK  208  A    between atoms: _500  and  _501
REMARK  209  A    between atoms: _505  and  _506
REMARK  210  A    between atoms: _511  and  _513
REMARK  211  A    between atoms: _513  and  _514
REMARK  212  A    between atoms: _513  and  _516
REMARK  213  A    between atoms: _519  and  _521
REMARK  214  A    between atoms: _521  and  _522
REMARK  215  A    between atoms: _521  and  _524
REMARK  216  A    between atoms: _524  and  _525
REMARK  217  A    between atoms: _530  and  _532
REMARK  218  A    between atoms: _532  and  _533
REMARK  219  A    between atoms: _532  and  _535
REMARK  220  A    between atoms: _535  and  _536
REMARK  221  A    between atoms: _539  and  _541
REMARK  222  A    between atoms: _541  and  _542
REMARK  223  A    between atoms: _541  and  _544
REMARK  224  A    between atoms: _544  and  _545
REMARK  225  A    between atoms: _548  and  _550
REMARK  226  A    between atoms: _550  and  _551
REMARK  227  A    between atoms: _553  and  _555
REMARK  228  A    between atoms: _555  and  _556
REMARK  229  A    between atoms: _555  and  _558
REMARK  230  A    between atoms: _558  and  _559
REMARK  231  A    between atoms: _559  and  _560
REMARK  232  A    between atoms: _560  and  _561
REMARK  233  A    between atoms: _570  and  _572
REMARK  234  A    between atoms: _572  and  _573
REMARK  235  A    between atoms: _572  and  _575
REMARK  236  A    between atoms: _575  and  _576
REMARK                            x       y       z     vdW  Elec       q    Type
REMARK                         _______ _______ _______ _____ _____    ______ ____
ROOT
ATOM      1  O   HOH     1      23.774  34.804  17.931  0.00  0.00    +0.000 OA
ENDROOT
TORSDOF 0
REMARK  Name = ../refined-set-2016/2avq/2avq_pocket.pdb
REMARK  236 active torsions:
REMARK  status: ('A' for Active; 'I' for Inactive)
REMARK    1  A    between atoms: _1  and  _3
REMARK    2  A    between atoms: _3  and  _4
REMARK    3  A    between atoms: _3  and  _6
REMARK    4  A    between atoms: _6  and  _7
REMARK    5  A    between atoms: _7  and  _8
REMARK    6  A    between atoms: _8  and  _9
REMARK    7  A    between atoms: _18  and  _20
REMARK    8  A    between atoms: _20  and  _21
REMARK    9  A    between atoms: _20  and  _23
REMARK   10  A    between atoms: _23  and  _24
REMARK   11  A    between atoms: _27  and  _29
REMARK   12  A    between atoms: _29  and  _30
REMARK   13  A    between atoms: _29  and  _32
REMARK   14  A    between atoms: _32  and  _33
REMARK   15  A    between atoms: _36  and  _38
REMARK   16  A    between atoms: _38  and  _39
REMARK   17  A    between atoms: _38  and  _41
REMARK   18  A    between atoms: _41  and  _42
REMARK   19  A    between atoms: _45  and  _47
REMARK   20  A    between atoms: _47  and  _48
REMARK   21  A    between atoms: _47  and  _50
REMARK   22  A    between atoms: _50  and  _51
REMARK   23  A    between atoms: _54  and  _56
REMARK   24  A    between atoms: _56  and  _57
REMARK   25  A    between atoms: _56  and  _59
REMARK   26  A    between atoms: _59  and  _60
REMARK   27  A    between atoms: _63  and  _65
REMARK   28  A    between atoms: _65  and  _66
REMARK   29  A    between atoms: _68  and  _70
REMARK   30  A    between atoms: _70  and  _71
REMARK   31  A    between atoms: _74  and  _76
REMARK   32  A    between atoms: _76  and  _77
REMARK   33  A    between atoms: _76  and  _79
REMARK   34  A    between atoms: _79  and  _80
REMARK   35  A    between atoms: _83  and  _85
REMARK   36  A    between atoms: _85  and  _86
REMARK   37  A    between atoms: _85  and  _88
REMARK   38  A    between atoms: _88  and  _89
REMARK   39  A    between atoms: _92  and  _94
REMARK   40  A    between atoms: _94  and  _95
REMARK   41  A    between atoms: _94  and  _97
REMARK   42  A    between atoms: _97  and  _98
REMARK   43  A    between atoms: _101  and  _103
REMARK   44  A    between atoms: _103  and  _104
REMARK   45  A    between atoms: _103  and  _106
REMARK   46  A    between atoms: _109  and  _111
REMARK   47  A    between atoms: _111  and  _112
REMARK   48  A    between atoms: _111  and  _114
REMARK   49  A    between atoms: _114  and  _115
REMARK   50  A    between atoms: _115  and  _116
REMARK   51  A    between atoms: _116  and  _117
REMARK   52  A    between atoms: _117  and  _118
REMARK   53  A    between atoms: _122  and  _124
REMARK   54  A    between atoms: _124  and  _125
REMARK   55  A    between atoms: _124  and  _127
REMARK   56  A    between atoms: _127  and  _128
REMARK   57  A    between atoms: _128  and  _129
REMARK   58  A    between atoms: _131  and  _133
REMARK   59  A    between atoms: _133  and  _134
REMARK   60  A    between atoms: _133  and  _136
REMARK   61  A    between atoms: _136  and  _137
REMARK   62  A    between atoms: _140  and  _142
REMARK   63  A    between atoms: _142  and  _143
REMARK   64  A    between atoms: _145  and  _147
REMARK   65  A    between atoms: _147  and  _148
REMARK   66  A    between atoms: _150  and  _152
REMARK   67  A    between atoms: _152  and  _153
REMARK   68  A    between atoms: _152  and  _155
REMARK   69  A    between atoms: _158  and  _160
REMARK   70  A    between atoms: _160  and  _161
REMARK   71  A    between atoms: _163  and  _165
REMARK   72  A    between atoms: _165  and  _166
REMARK   73  A    between atoms: _168  and  _170
REMARK   74  A    between atoms: _170  and  _171
REMARK   75  A    between atoms: _170  and  _173
REMARK   76  A    between atoms: _173  and  _174
REMARK   77  A    between atoms: _180  and  _182
REMARK   78  A    between atoms: _182  and  _183
REMARK   79  A    between atoms: _182  and  _185
REMARK   80  A    between atoms: _185  and  _186
REMARK   81  A    between atoms: _189  and  _191
REMARK   82  A    between atoms: _191  and  _192
REMARK   83  A    between atoms: _191  and  _194
REMARK   84  A    between atoms: _197  and  _199
REMARK   85  A    between atoms: _199  and  _200
REMARK   86  A    between atoms: _199  and  _202
REMARK   87  A    between atoms: _202  and  _203
REMARK   88  A    between atoms: _206  and  _208
REMARK   89  A    between atoms: _208  and  _209
REMARK   90  A    between atoms: _208  and  _211
REMARK   91  A    between atoms: _211  and  _212
REMARK   92  A    between atoms: _216  and  _217
REMARK   93  A    between atoms: _222  and  _224
REMARK   94  A    between atoms: _224  and  _225
REMARK   95  A    between atoms: _224  and  _227
REMARK   96  A    between atoms: _230  and  _232
REMARK   97  A    between atoms: _232  and  _233
REMARK   98  A    between atoms: _232  and  _235
REMARK   99  A    between atoms: _235  and  _236
REMARK  100  A    between atoms: _241  and  _243
REMARK  101  A    between atoms: _243  and  _244
REMARK  102  A    between atoms: _243  and  _246
REMARK  103  A    between atoms: _246  and  _247
REMARK  104  A    between atoms: _250  and  _252
REMARK  105  A    between atoms: _252  and  _253
REMARK  106  A    between atoms: _252  and  _255
REMARK  107  A    between atoms: _255  and  _256
REMARK  108  A    between atoms: _259  and  _261
REMARK  109  A    between atoms: _261  and  _262
REMARK  110  A    between atoms: _264  and  _266
REMARK  111  A    between atoms: _266  and  _267
REMARK  112  A    between atoms: _266  and  _269
REMARK  113  A    between atoms: _269  and  _270
REMARK  114  A    between atoms: _270  and  _271
REMARK  115  A    between atoms: _271  and  _272
REMARK  116  A    between atoms: _281  and  _283
REMARK  117  A    between atoms: _283  and  _284
REMARK  118  A    between atoms: _283  and  _286
REMARK  119  A    between atoms: _286  and  _287
REMARK  120  A    between atoms: _292  and  _294
REMARK  121  A    between atoms: _294  and  _295
REMARK  122  A    between atoms: _294  and  _297
REMARK  123  A    between atoms: _297  and  _298
REMARK  124  A    between atoms: _298  and  _299
REMARK  125  A    between atoms: _299  and  _300
REMARK  126  A    between atoms: _302  and  _303
REMARK  127  A    between atoms: _309  and  _311
REMARK  128  A    between atoms: _311  and  _312
REMARK  129  A    between atoms: _311  and  _314
REMARK  130  A    between atoms: _314  and  _315
REMARK  131  A    between atoms: _318  and  _320
REMARK  132  A    between atoms: _320  and  _321
REMARK  133  A    between atoms: _320  and  _323
REMARK  134  A    between atoms: _323  and  _324
REMARK  135  A    between atoms: _327  and  _329
REMARK  136  A    between atoms: _329  and  _330
REMARK  137  A    between atoms: _329  and  _332
REMARK  138  A    between atoms: _332  and  _333
REMARK  139  A    between atoms: _336  and  _338
REMARK  140  A    between atoms: _338  and  _339
REMARK  141  A    between atoms: _338  and  _341
REMARK  142  A    between atoms: _341  and  _342
REMARK  143  A    between atoms: _345  and  _347
REMARK  144  A    between atoms: _347  and  _348
REMARK  145  A    between atoms: _350  and  _352
REMARK  146  A    between atoms: _352  and  _353
REMARK  147  A    between atoms: _356  and  _358
REMARK  148  A    between atoms: _358  and  _359
REMARK  149  A    between atoms: _358  and  _361
REMARK  150  A    between atoms: _361  and  _362
REMARK  151  A    between atoms: _365  and  _367
REMARK  152  A    between atoms: _367  and  _368
REMARK  153  A    between atoms: _367  and  _370
REMARK  154  A    between atoms: _370  and  _371
REMARK  155  A    between atoms: _374  and  _376
REMARK  156  A    between atoms: _376  and  _377
REMARK  157  A    between atoms: _376  and  _379
REMARK  158  A    between atoms: _379  and  _380
REMARK  159  A    between atoms: _383  and  _385
REMARK  160  A    between atoms: _385  and  _386
REMARK  161  A    between atoms: _385  and  _388
REMARK  162  A    between atoms: _391  and  _393
REMARK  163  A    between atoms: _393  and  _394
REMARK  164  A    between atoms: _393  and  _396
REMARK  165  A    between atoms: _396  and  _397
REMARK  166  A    between atoms: _397  and  _398
REMARK  167  A    between atoms: _398  and  _399
REMARK  168  A    between atoms: _399  and  _400
REMARK  169  A    between atoms: _404  and  _406
REMARK  170  A    between atoms: _406  and  _407
REMARK  171  A    between atoms: _406  and  _409
REMARK  172  A    between atoms: _409  and  _410
REMARK  173  A    between atoms: _410  and  _411
REMARK  174  A    between atoms: _413  and  _415
REMARK  175  A    between atoms: _415  and  _416
REMARK  176  A    between atoms: _415  and  _418
REMARK  177  A    between atoms: _418  and  _419
REMARK  178  A    between atoms: _422  and  _424
REMARK  179  A    between atoms: _424  and  _425
REMARK  180  A    between atoms: _427  and  _429
REMARK  181  A    between atoms: _429  and  _430
REMARK  182  A    between atoms: _432  and  _434
REMARK  183  A    between atoms: _434  and  _435
REMARK  184  A    between atoms: _434  and  _437
REMARK  185  A    between atoms: _440  and  _442
REMARK  186  A    between atoms: _442  and  _443
REMARK  187  A    between atoms: _445  and  _447
REMARK  188  A    between atoms: _447  and  _448
REMARK  189  A    between atoms: _450  and  _452
REMARK  190  A    between atoms: _452  and  _453
REMARK  191  A    between atoms: _452  and  _455
REMARK  192  A    between atoms: _455  and  _456
REMARK  193  A    between atoms: _462  and  _464
REMARK  194  A    between atoms: _464  and  _465
REMARK  195  A    between atoms: _464  and  _467
REMARK  196  A    between atoms: _467  and  _468
REMARK  197  A    between atoms: _471  and  _473
REMARK  198  A    between atoms: _473  and  _474
REMARK  199  A    between atoms: _473  and  _476
REMARK  200  A    between atoms: _479  and  _481
REMARK  201  A    between atoms: _481  and  _482
REMARK  202  A    between atoms: _481  and  _484
REMARK  203  A    between atoms: _484  and  _485
REMARK  204  A    between atoms: _489  and  _490
REMARK  205  A    between atoms: _495  and  _497
REMARK  206  A    between atoms: _497  and  _498
REMARK  207  A    between atoms: _497  and  _500
REMARK  208  A    between atoms: _500  and  _501
REMARK  209  A    between atoms: _505  and  _506
REMARK  210  A    between atoms: _511  and  _513
REMARK  211  A    between atoms: _513  and  _514
REMARK  212  A    between atoms: _513  and  _516
REMARK  213  A    between atoms: _519  and  _521
REMARK  214  A    between atoms: _521  and  _522
REMARK  215  A    between atoms: _521  and  _524
REMARK  216  A    between atoms: _524  and  _525
REMARK  217  A    between atoms: _530  and  _532
REMARK  218  A    between atoms: _532  and  _533
REMARK  219  A    between atoms: _532  and  _535
REMARK  220  A    between atoms: _535  and  _536
REMARK  221  A    between atoms: _539  and  _541
REMARK  222  A    between atoms: _541  and  _542
REMARK  223  A    between atoms: _541  and  _544
REMARK  224  A    between atoms: _544  and  _545
REMARK  225  A    between atoms: _548  and  _550
REMARK  226  A    between atoms: _550  and  _551
REMARK  227  A    between atoms: _553  and  _555
REMARK  228  A    between atoms: _555  and  _556
REMARK  229  A    between atoms: _555  and  _558
REMARK  230  A    between atoms: _558  and  _559
REMARK  231  A    between atoms: _559  and  _560
REMARK  232  A    between atoms: _560  and  _561
REMARK  233  A    between atoms: _570  and  _572
REMARK  234  A    between atoms: _572  and  _573
REMARK  235  A    between atoms: _572  and  _575
REMARK  236  A    between atoms: _575  and  _576
REMARK                            x       y       z     vdW  Elec       q    Type
REMARK                         _______ _______ _______ _____ _____    ______ ____
ROOT
ATOM      1  O   HOH     1      11.304  17.802   6.829  0.00  0.00    +0.000 OA
ENDROOT
TORSDOF 0
REMARK  Name = ../refined-set-2016/2avq/2avq_pocket.pdb
REMARK  236 active torsions:
REMARK  status: ('A' for Active; 'I' for Inactive)
REMARK    1  A    between atoms: _1  and  _3
REMARK    2  A    between atoms: _3  and  _4
REMARK    3  A    between atoms: _3  and  _6
REMARK    4  A    between atoms: _6  and  _7
REMARK    5  A    between atoms: _7  and  _8
REMARK    6  A    between atoms: _8  and  _9
REMARK    7  A    between atoms: _18  and  _20
REMARK    8  A    between atoms: _20  and  _21
REMARK    9  A    between atoms: _20  and  _23
REMARK   10  A    between atoms: _23  and  _24
REMARK   11  A    between atoms: _27  and  _29
REMARK   12  A    between atoms: _29  and  _30
REMARK   13  A    between atoms: _29  and  _32
REMARK   14  A    between atoms: _32  and  _33
REMARK   15  A    between atoms: _36  and  _38
REMARK   16  A    between atoms: _38  and  _39
REMARK   17  A    between atoms: _38  and  _41
REMARK   18  A    between atoms: _41  and  _42
REMARK   19  A    between atoms: _45  and  _47
REMARK   20  A    between atoms: _47  and  _48
REMARK   21  A    between atoms: _47  and  _50
REMARK   22  A    between atoms: _50  and  _51
REMARK   23  A    between atoms: _54  and  _56
REMARK   24  A    between atoms: _56  and  _57
REMARK   25  A    between atoms: _56  and  _59
REMARK   26  A    between atoms: _59  and  _60
REMARK   27  A    between atoms: _63  and  _65
REMARK   28  A    between atoms: _65  and  _66
REMARK   29  A    between atoms: _68  and  _70
REMARK   30  A    between atoms: _70  and  _71
REMARK   31  A    between atoms: _74  and  _76
REMARK   32  A    between atoms: _76  and  _77
REMARK   33  A    between atoms: _76  and  _79
REMARK   34  A    between atoms: _79  and  _80
REMARK   35  A    between atoms: _83  and  _85
REMARK   36  A    between atoms: _85  and  _86
REMARK   37  A    between atoms: _85  and  _88
REMARK   38  A    between atoms: _88  and  _89
REMARK   39  A    between atoms: _92  and  _94
REMARK   40  A    between atoms: _94  and  _95
REMARK   41  A    between atoms: _94  and  _97
REMARK   42  A    between atoms: _97  and  _98
REMARK   43  A    between atoms: _101  and  _103
REMARK   44  A    between atoms: _103  and  _104
REMARK   45  A    between atoms: _103  and  _106
REMARK   46  A    between atoms: _109  and  _111
REMARK   47  A    between atoms: _111  and  _112
REMARK   48  A    between atoms: _111  and  _114
REMARK   49  A    between atoms: _114  and  _115
REMARK   50  A    between atoms: _115  and  _116
REMARK   51  A    between atoms: _116  and  _117
REMARK   52  A    between atoms: _117  and  _118
REMARK   53  A    between atoms: _122  and  _124
REMARK   54  A    between atoms: _124  and  _125
REMARK   55  A    between atoms: _124  and  _127
REMARK   56  A    between atoms: _127  and  _128
REMARK   57  A    between atoms: _128  and  _129
REMARK   58  A    between atoms: _131  and  _133
REMARK   59  A    between atoms: _133  and  _134
REMARK   60  A    between atoms: _133  and  _136
REMARK   61  A    between atoms: _136  and  _137
REMARK   62  A    between atoms: _140  and  _142
REMARK   63  A    between atoms: _142  and  _143
REMARK   64  A    between atoms: _145  and  _147
REMARK   65  A    between atoms: _147  and  _148
REMARK   66  A    between atoms: _150  and  _152
REMARK   67  A    between atoms: _152  and  _153
REMARK   68  A    between atoms: _152  and  _155
REMARK   69  A    between atoms: _158  and  _160
REMARK   70  A    between atoms: _160  and  _161
REMARK   71  A    between atoms: _163  and  _165
REMARK   72  A    between atoms: _165  and  _166
REMARK   73  A    between atoms: _168  and  _170
REMARK   74  A    between atoms: _170  and  _171
REMARK   75  A    between atoms: _170  and  _173
REMARK   76  A    between atoms: _173  and  _174
REMARK   77  A    between atoms: _180  and  _182
REMARK   78  A    between atoms: _182  and  _183
REMARK   79  A    between atoms: _182  and  _185
REMARK   80  A    between atoms: _185  and  _186
REMARK   81  A    between atoms: _189  and  _191
REMARK   82  A    between atoms: _191  and  _192
REMARK   83  A    between atoms: _191  and  _194
REMARK   84  A    between atoms: _197  and  _199
REMARK   85  A    between atoms: _199  and  _200
REMARK   86  A    between atoms: _199  and  _202
REMARK   87  A    between atoms: _202  and  _203
REMARK   88  A    between atoms: _206  and  _208
REMARK   89  A    between atoms: _208  and  _209
REMARK   90  A    between atoms: _208  and  _211
REMARK   91  A    between atoms: _211  and  _212
REMARK   92  A    between atoms: _216  and  _217
REMARK   93  A    between atoms: _222  and  _224
REMARK   94  A    between atoms: _224  and  _225
REMARK   95  A    between atoms: _224  and  _227
REMARK   96  A    between atoms: _230  and  _232
REMARK   97  A    between atoms: _232  and  _233
REMARK   98  A    between atoms: _232  and  _235
REMARK   99  A    between atoms: _235  and  _236
REMARK  100  A    between atoms: _241  and  _243
REMARK  101  A    between atoms: _243  and  _244
REMARK  102  A    between atoms: _243  and  _246
REMARK  103  A    between atoms: _246  and  _247
REMARK  104  A    between atoms: _250  and  _252
REMARK  105  A    between atoms: _252  and  _253
REMARK  106  A    between atoms: _252  and  _255
REMARK  107  A    between atoms: _255  and  _256
REMARK  108  A    between atoms: _259  and  _261
REMARK  109  A    between atoms: _261  and  _262
REMARK  110  A    between atoms: _264  and  _266
REMARK  111  A    between atoms: _266  and  _267
REMARK  112  A    between atoms: _266  and  _269
REMARK  113  A    between atoms: _269  and  _270
REMARK  114  A    between atoms: _270  and  _271
REMARK  115  A    between atoms: _271  and  _272
REMARK  116  A    between atoms: _281  and  _283
REMARK  117  A    between atoms: _283  and  _284
REMARK  118  A    between atoms: _283  and  _286
REMARK  119  A    between atoms: _286  and  _287
REMARK  120  A    between atoms: _292  and  _294
REMARK  121  A    between atoms: _294  and  _295
REMARK  122  A    between atoms: _294  and  _297
REMARK  123  A    between atoms: _297  and  _298
REMARK  124  A    between atoms: _298  and  _299
REMARK  125  A    between atoms: _299  and  _300
REMARK  126  A    between atoms: _302  and  _303
REMARK  127  A    between atoms: _309  and  _311
REMARK  128  A    between atoms: _311  and  _312
REMARK  129  A    between atoms: _311  and  _314
REMARK  130  A    between atoms: _314  and  _315
REMARK  131  A    between atoms: _318  and  _320
REMARK  132  A    between atoms: _320  and  _321
REMARK  133  A    between atoms: _320  and  _323
REMARK  134  A    between atoms: _323  and  _324
REMARK  135  A    between atoms: _327  and  _329
REMARK  136  A    between atoms: _329  and  _330
REMARK  137  A    between atoms: _329  and  _332
REMARK  138  A    between atoms: _332  and  _333
REMARK  139  A    between atoms: _336  and  _338
REMARK  140  A    between atoms: _338  and  _339
REMARK  141  A    between atoms: _338  and  _341
REMARK  142  A    between atoms: _341  and  _342
REMARK  143  A    between atoms: _345  and  _347
REMARK  144  A    between atoms: _347  and  _348
REMARK  145  A    between atoms: _350  and  _352
REMARK  146  A    between atoms: _352  and  _353
REMARK  147  A    between atoms: _356  and  _358
REMARK  148  A    between atoms: _358  and  _359
REMARK  149  A    between atoms: _358  and  _361
REMARK  150  A    between atoms: _361  and  _362
REMARK  151  A    between atoms: _365  and  _367
REMARK  152  A    between atoms: _367  and  _368
REMARK  153  A    between atoms: _367  and  _370
REMARK  154  A    between atoms: _370  and  _371
REMARK  155  A    between atoms: _374  and  _376
REMARK  156  A    between atoms: _376  and  _377
REMARK  157  A    between atoms: _376  and  _379
REMARK  158  A    between atoms: _379  and  _380
REMARK  159  A    between atoms: _383  and  _385
REMARK  160  A    between atoms: _385  and  _386
REMARK  161  A    between atoms: _385  and  _388
REMARK  162  A    between atoms: _391  and  _393
REMARK  163  A    between atoms: _393  and  _394
REMARK  164  A    between atoms: _393  and  _396
REMARK  165  A    between atoms: _396  and  _397
REMARK  166  A    between atoms: _397  and  _398
REMARK  167  A    between atoms: _398  and  _399
REMARK  168  A    between atoms: _399  and  _400
REMARK  169  A    between atoms: _404  and  _406
REMARK  170  A    between atoms: _406  and  _407
REMARK  171  A    between atoms: _406  and  _409
REMARK  172  A    between atoms: _409  and  _410
REMARK  173  A    between atoms: _410  and  _411
REMARK  174  A    between atoms: _413  and  _415
REMARK  175  A    between atoms: _415  and  _416
REMARK  176  A    between atoms: _415  and  _418
REMARK  177  A    between atoms: _418  and  _419
REMARK  178  A    between atoms: _422  and  _424
REMARK  179  A    between atoms: _424  and  _425
REMARK  180  A    between atoms: _427  and  _429
REMARK  181  A    between atoms: _429  and  _430
REMARK  182  A    between atoms: _432  and  _434
REMARK  183  A    between atoms: _434  and  _435
REMARK  184  A    between atoms: _434  and  _437
REMARK  185  A    between atoms: _440  and  _442
REMARK  186  A    between atoms: _442  and  _443
REMARK  187  A    between atoms: _445  and  _447
REMARK  188  A    between atoms: _447  and  _448
REMARK  189  A    between atoms: _450  and  _452
REMARK  190  A    between atoms: _452  and  _453
REMARK  191  A    between atoms: _452  and  _455
REMARK  192  A    between atoms: _455  and  _456
REMARK  193  A    between atoms: _462  and  _464
REMARK  194  A    between atoms: _464  and  _465
REMARK  195  A    between atoms: _464  and  _467
REMARK  196  A    between atoms: _467  and  _468
REMARK  197  A    between atoms: _471  and  _473
REMARK  198  A    between atoms: _473  and  _474
REMARK  199  A    between atoms: _473  and  _476
REMARK  200  A    between atoms: _479  and  _481
REMARK  201  A    between atoms: _481  and  _482
REMARK  202  A    between atoms: _481  and  _484
REMARK  203  A    between atoms: _484  and  _485
REMARK  204  A    between atoms: _489  and  _490
REMARK  205  A    between atoms: _495  and  _497
REMARK  206  A    between atoms: _497  and  _498
REMARK  207  A    between atoms: _497  and  _500
REMARK  208  A    between atoms: _500  and  _501
REMARK  209  A    between atoms: _505  and  _506
REMARK  210  A    between atoms: _511  and  _513
REMARK  211  A    between atoms: _513  and  _514
REMARK  212  A    between atoms: _513  and  _516
REMARK  213  A    between atoms: _519  and  _521
REMARK  214  A    between atoms: _521  and  _522
REMARK  215  A    between atoms: _521  and  _524
REMARK  216  A    between atoms: _524  and  _525
REMARK  217  A    between atoms: _530  and  _532
REMARK  218  A    between atoms: _532  and  _533
REMARK  219  A    between atoms: _532  and  _535
REMARK  220  A    between atoms: _535  and  _536
REMARK  221  A    between atoms: _539  and  _541
REMARK  222  A    between atoms: _541  and  _542
REMARK  223  A    between atoms: _541  and  _544
REMARK  224  A    between atoms: _544  and  _545
REMARK  225  A    between atoms: _548  and  _550
REMARK  226  A    between atoms: _550  and  _551
REMARK  227  A    between atoms: _553  and  _555
REMARK  228  A    between atoms: _555  and  _556
REMARK  229  A    between atoms: _555  and  _558
REMARK  230  A    between atoms: _558  and  _559
REMARK  231  A    between atoms: _559  and  _560
REMARK  232  A    between atoms: _560  and  _561
REMARK  233  A    between atoms: _570  and  _572
REMARK  234  A    between atoms: _572  and  _573
REMARK  235  A    between atoms: _572  and  _575
REMARK  236  A    between atoms: _575  and  _576
REMARK                            x       y       z     vdW  Elec       q    Type
REMARK                         _______ _______ _______ _____ _____    ______ ____
ROOT
ATOM      1  O   HOH     1       8.705  21.943  16.965  0.00  0.00    +0.000 OA
ENDROOT
TORSDOF 0
REMARK  Name = ../refined-set-2016/2avq/2avq_pocket.pdb
REMARK  236 active torsions:
REMARK  status: ('A' for Active; 'I' for Inactive)
REMARK    1  A    between atoms: _1  and  _3
REMARK    2  A    between atoms: _3  and  _4
REMARK    3  A    between atoms: _3  and  _6
REMARK    4  A    between atoms: _6  and  _7
REMARK    5  A    between atoms: _7  and  _8
REMARK    6  A    between atoms: _8  and  _9
REMARK    7  A    between atoms: _18  and  _20
REMARK    8  A    between atoms: _20  and  _21
REMARK    9  A    between atoms: _20  and  _23
REMARK   10  A    between atoms: _23  and  _24
REMARK   11  A    between atoms: _27  and  _29
REMARK   12  A    between atoms: _29  and  _30
REMARK   13  A    between atoms: _29  and  _32
REMARK   14  A    between atoms: _32  and  _33
REMARK   15  A    between atoms: _36  and  _38
REMARK   16  A    between atoms: _38  and  _39
REMARK   17  A    between atoms: _38  and  _41
REMARK   18  A    between atoms: _41  and  _42
REMARK   19  A    between atoms: _45  and  _47
REMARK   20  A    between atoms: _47  and  _48
REMARK   21  A    between atoms: _47  and  _50
REMARK   22  A    between atoms: _50  and  _51
REMARK   23  A    between atoms: _54  and  _56
REMARK   24  A    between atoms: _56  and  _57
REMARK   25  A    between atoms: _56  and  _59
REMARK   26  A    between atoms: _59  and  _60
REMARK   27  A    between atoms: _63  and  _65
REMARK   28  A    between atoms: _65  and  _66
REMARK   29  A    between atoms: _68  and  _70
REMARK   30  A    between atoms: _70  and  _71
REMARK   31  A    between atoms: _74  and  _76
REMARK   32  A    between atoms: _76  and  _77
REMARK   33  A    between atoms: _76  and  _79
REMARK   34  A    between atoms: _79  and  _80
REMARK   35  A    between atoms: _83  and  _85
REMARK   36  A    between atoms: _85  and  _86
REMARK   37  A    between atoms: _85  and  _88
REMARK   38  A    between atoms: _88  and  _89
REMARK   39  A    between atoms: _92  and  _94
REMARK   40  A    between atoms: _94  and  _95
REMARK   41  A    between atoms: _94  and  _97
REMARK   42  A    between atoms: _97  and  _98
REMARK   43  A    between atoms: _101  and  _103
REMARK   44  A    between atoms: _103  and  _104
REMARK   45  A    between atoms: _103  and  _106
REMARK   46  A    between atoms: _109  and  _111
REMARK   47  A    between atoms: _111  and  _112
REMARK   48  A    between atoms: _111  and  _114
REMARK   49  A    between atoms: _114  and  _115
REMARK   50  A    between atoms: _115  and  _116
REMARK   51  A    between atoms: _116  and  _117
REMARK   52  A    between atoms: _117  and  _118
REMARK   53  A    between atoms: _122  and  _124
REMARK   54  A    between atoms: _124  and  _125
REMARK   55  A    between atoms: _124  and  _127
REMARK   56  A    between atoms: _127  and  _128
REMARK   57  A    between atoms: _128  and  _129
REMARK   58  A    between atoms: _131  and  _133
REMARK   59  A    between atoms: _133  and  _134
REMARK   60  A    between atoms: _133  and  _136
REMARK   61  A    between atoms: _136  and  _137
REMARK   62  A    between atoms: _140  and  _142
REMARK   63  A    between atoms: _142  and  _143
REMARK   64  A    between atoms: _145  and  _147
REMARK   65  A    between atoms: _147  and  _148
REMARK   66  A    between atoms: _150  and  _152
REMARK   67  A    between atoms: _152  and  _153
REMARK   68  A    between atoms: _152  and  _155
REMARK   69  A    between atoms: _158  and  _160
REMARK   70  A    between atoms: _160  and  _161
REMARK   71  A    between atoms: _163  and  _165
REMARK   72  A    between atoms: _165  and  _166
REMARK   73  A    between atoms: _168  and  _170
REMARK   74  A    between atoms: _170  and  _171
REMARK   75  A    between atoms: _170  and  _173
REMARK   76  A    between atoms: _173  and  _174
REMARK   77  A    between atoms: _180  and  _182
REMARK   78  A    between atoms: _182  and  _183
REMARK   79  A    between atoms: _182  and  _185
REMARK   80  A    between atoms: _185  and  _186
REMARK   81  A    between atoms: _189  and  _191
REMARK   82  A    between atoms: _191  and  _192
REMARK   83  A    between atoms: _191  and  _194
REMARK   84  A    between atoms: _197  and  _199
REMARK   85  A    between atoms: _199  and  _200
REMARK   86  A    between atoms: _199  and  _202
REMARK   87  A    between atoms: _202  and  _203
REMARK   88  A    between atoms: _206  and  _208
REMARK   89  A    between atoms: _208  and  _209
REMARK   90  A    between atoms: _208  and  _211
REMARK   91  A    between atoms: _211  and  _212
REMARK   92  A    between atoms: _216  and  _217
REMARK   93  A    between atoms: _222  and  _224
REMARK   94  A    between atoms: _224  and  _225
REMARK   95  A    between atoms: _224  and  _227
REMARK   96  A    between atoms: _230  and  _232
REMARK   97  A    between atoms: _232  and  _233
REMARK   98  A    between atoms: _232  and  _235
REMARK   99  A    between atoms: _235  and  _236
REMARK  100  A    between atoms: _241  and  _243
REMARK  101  A    between atoms: _243  and  _244
REMARK  102  A    between atoms: _243  and  _246
REMARK  103  A    between atoms: _246  and  _247
REMARK  104  A    between atoms: _250  and  _252
REMARK  105  A    between atoms: _252  and  _253
REMARK  106  A    between atoms: _252  and  _255
REMARK  107  A    between atoms: _255  and  _256
REMARK  108  A    between atoms: _259  and  _261
REMARK  109  A    between atoms: _261  and  _262
REMARK  110  A    between atoms: _264  and  _266
REMARK  111  A    between atoms: _266  and  _267
REMARK  112  A    between atoms: _266  and  _269
REMARK  113  A    between atoms: _269  and  _270
REMARK  114  A    between atoms: _270  and  _271
REMARK  115  A    between atoms: _271  and  _272
REMARK  116  A    between atoms: _281  and  _283
REMARK  117  A    between atoms: _283  and  _284
REMARK  118  A    between atoms: _283  and  _286
REMARK  119  A    between atoms: _286  and  _287
REMARK  120  A    between atoms: _292  and  _294
REMARK  121  A    between atoms: _294  and  _295
REMARK  122  A    between atoms: _294  and  _297
REMARK  123  A    between atoms: _297  and  _298
REMARK  124  A    between atoms: _298  and  _299
REMARK  125  A    between atoms: _299  and  _300
REMARK  126  A    between atoms: _302  and  _303
REMARK  127  A    between atoms: _309  and  _311
REMARK  128  A    between atoms: _311  and  _312
REMARK  129  A    between atoms: _311  and  _314
REMARK  130  A    between atoms: _314  and  _315
REMARK  131  A    between atoms: _318  and  _320
REMARK  132  A    between atoms: _320  and  _321
REMARK  133  A    between atoms: _320  and  _323
REMARK  134  A    between atoms: _323  and  _324
REMARK  135  A    between atoms: _327  and  _329
REMARK  136  A    between atoms: _329  and  _330
REMARK  137  A    between atoms: _329  and  _332
REMARK  138  A    between atoms: _332  and  _333
REMARK  139  A    between atoms: _336  and  _338
REMARK  140  A    between atoms: _338  and  _339
REMARK  141  A    between atoms: _338  and  _341
REMARK  142  A    between atoms: _341  and  _342
REMARK  143  A    between atoms: _345  and  _347
REMARK  144  A    between atoms: _347  and  _348
REMARK  145  A    between atoms: _350  and  _352
REMARK  146  A    between atoms: _352  and  _353
REMARK  147  A    between atoms: _356  and  _358
REMARK  148  A    between atoms: _358  and  _359
REMARK  149  A    between atoms: _358  and  _361
REMARK  150  A    between atoms: _361  and  _362
REMARK  151  A    between atoms: _365  and  _367
REMARK  152  A    between atoms: _367  and  _368
REMARK  153  A    between atoms: _367  and  _370
REMARK  154  A    between atoms: _370  and  _371
REMARK  155  A    between atoms: _374  and  _376
REMARK  156  A    between atoms: _376  and  _377
REMARK  157  A    between atoms: _376  and  _379
REMARK  158  A    between atoms: _379  and  _380
REMARK  159  A    between atoms: _383  and  _385
REMARK  160  A    between atoms: _385  and  _386
REMARK  161  A    between atoms: _385  and  _388
REMARK  162  A    between atoms: _391  and  _393
REMARK  163  A    between atoms: _393  and  _394
REMARK  164  A    between atoms: _393  and  _396
REMARK  165  A    between atoms: _396  and  _397
REMARK  166  A    between atoms: _397  and  _398
REMARK  167  A    between atoms: _398  and  _399
REMARK  168  A    between atoms: _399  and  _400
REMARK  169  A    between atoms: _404  and  _406
REMARK  170  A    between atoms: _406  and  _407
REMARK  171  A    between atoms: _406  and  _409
REMARK  172  A    between atoms: _409  and  _410
REMARK  173  A    between atoms: _410  and  _411
REMARK  174  A    between atoms: _413  and  _415
REMARK  175  A    between atoms: _415  and  _416
REMARK  176  A    between atoms: _415  and  _418
REMARK  177  A    between atoms: _418  and  _419
REMARK  178  A    between atoms: _422  and  _424
REMARK  179  A    between atoms: _424  and  _425
REMARK  180  A    between atoms: _427  and  _429
REMARK  181  A    between atoms: _429  and  _430
REMARK  182  A    between atoms: _432  and  _434
REMARK  183  A    between atoms: _434  and  _435
REMARK  184  A    between atoms: _434  and  _437
REMARK  185  A    between atoms: _440  and  _442
REMARK  186  A    between atoms: _442  and  _443
REMARK  187  A    between atoms: _445  and  _447
REMARK  188  A    between atoms: _447  and  _448
REMARK  189  A    between atoms: _450  and  _452
REMARK  190  A    between atoms: _452  and  _453
REMARK  191  A    between atoms: _452  and  _455
REMARK  192  A    between atoms: _455  and  _456
REMARK  193  A    between atoms: _462  and  _464
REMARK  194  A    between atoms: _464  and  _465
REMARK  195  A    between atoms: _464  and  _467
REMARK  196  A    between atoms: _467  and  _468
REMARK  197  A    between atoms: _471  and  _473
REMARK  198  A    between atoms: _473  and  _474
REMARK  199  A    between atoms: _473  and  _476
REMARK  200  A    between atoms: _479  and  _481
REMARK  201  A    between atoms: _481  and  _482
REMARK  202  A    between atoms: _481  and  _484
REMARK  203  A    between atoms: _484  and  _485
REMARK  204  A    between atoms: _489  and  _490
REMARK  205  A    between atoms: _495  and  _497
REMARK  206  A    between atoms: _497  and  _498
REMARK  207  A    between atoms: _497  and  _500
REMARK  208  A    between atoms: _500  and  _501
REMARK  209  A    between atoms: _505  and  _506
REMARK  210  A    between atoms: _511  and  _513
REMARK  211  A    between atoms: _513  and  _514
REMARK  212  A    between atoms: _513  and  _516
REMARK  213  A    between atoms: _519  and  _521
REMARK  214  A    between atoms: _521  and  _522
REMARK  215  A    between atoms: _521  and  _524
REMARK  216  A    between atoms: _524  and  _525
REMARK  217  A    between atoms: _530  and  _532
REMARK  218  A    between atoms: _532  and  _533
REMARK  219  A    between atoms: _532  and  _535
REMARK  220  A    between atoms: _535  and  _536
REMARK  221  A    between atoms: _539  and  _541
REMARK  222  A    between atoms: _541  and  _542
REMARK  223  A    between atoms: _541  and  _544
REMARK  224  A    between atoms: _544  and  _545
REMARK  225  A    between atoms: _548  and  _550
REMARK  226  A    between atoms: _550  and  _551
REMARK  227  A    between atoms: _553  and  _555
REMARK  228  A    between atoms: _555  and  _556
REMARK  229  A    between atoms: _555  and  _558
REMARK  230  A    between atoms: _558  and  _559
REMARK  231  A    between atoms: _559  and  _560
REMARK  232  A    between atoms: _560  and  _561
REMARK  233  A    between atoms: _570  and  _572
REMARK  234  A    between atoms: _572  and  _573
REMARK  235  A    between atoms: _572  and  _575
REMARK  236  A    between atoms: _575  and  _576
REMARK                            x       y       z     vdW  Elec       q    Type
REMARK                         _______ _______ _______ _____ _____    ______ ____
ROOT
ATOM      1  O   HOH     1       7.348  23.963  18.439  0.00  0.00    +0.000 OA
ENDROOT
TORSDOF 0
REMARK  Name = ../refined-set-2016/2avq/2avq_pocket.pdb
REMARK  236 active torsions:
REMARK  status: ('A' for Active; 'I' for Inactive)
REMARK    1  A    between atoms: _1  and  _3
REMARK    2  A    between atoms: _3  and  _4
REMARK    3  A    between atoms: _3  and  _6
REMARK    4  A    between atoms: _6  and  _7
REMARK    5  A    between atoms: _7  and  _8
REMARK    6  A    between atoms: _8  and  _9
REMARK    7  A    between atoms: _18  and  _20
REMARK    8  A    between atoms: _20  and  _21
REMARK    9  A    between atoms: _20  and  _23
REMARK   10  A    between atoms: _23  and  _24
REMARK   11  A    between atoms: _27  and  _29
REMARK   12  A    between atoms: _29  and  _30
REMARK   13  A    between atoms: _29  and  _32
REMARK   14  A    between atoms: _32  and  _33
REMARK   15  A    between atoms: _36  and  _38
REMARK   16  A    between atoms: _38  and  _39
REMARK   17  A    between atoms: _38  and  _41
REMARK   18  A    between atoms: _41  and  _42
REMARK   19  A    between atoms: _45  and  _47
REMARK   20  A    between atoms: _47  and  _48
REMARK   21  A    between atoms: _47  and  _50
REMARK   22  A    between atoms: _50  and  _51
REMARK   23  A    between atoms: _54  and  _56
REMARK   24  A    between atoms: _56  and  _57
REMARK   25  A    between atoms: _56  and  _59
REMARK   26  A    between atoms: _59  and  _60
REMARK   27  A    between atoms: _63  and  _65
REMARK   28  A    between atoms: _65  and  _66
REMARK   29  A    between atoms: _68  and  _70
REMARK   30  A    between atoms: _70  and  _71
REMARK   31  A    between atoms: _74  and  _76
REMARK   32  A    between atoms: _76  and  _77
REMARK   33  A    between atoms: _76  and  _79
REMARK   34  A    between atoms: _79  and  _80
REMARK   35  A    between atoms: _83  and  _85
REMARK   36  A    between atoms: _85  and  _86
REMARK   37  A    between atoms: _85  and  _88
REMARK   38  A    between atoms: _88  and  _89
REMARK   39  A    between atoms: _92  and  _94
REMARK   40  A    between atoms: _94  and  _95
REMARK   41  A    between atoms: _94  and  _97
REMARK   42  A    between atoms: _97  and  _98
REMARK   43  A    between atoms: _101  and  _103
REMARK   44  A    between atoms: _103  and  _104
REMARK   45  A    between atoms: _103  and  _106
REMARK   46  A    between atoms: _109  and  _111
REMARK   47  A    between atoms: _111  and  _112
REMARK   48  A    between atoms: _111  and  _114
REMARK   49  A    between atoms: _114  and  _115
REMARK   50  A    between atoms: _115  and  _116
REMARK   51  A    between atoms: _116  and  _117
REMARK   52  A    between atoms: _117  and  _118
REMARK   53  A    between atoms: _122  and  _124
REMARK   54  A    between atoms: _124  and  _125
REMARK   55  A    between atoms: _124  and  _127
REMARK   56  A    between atoms: _127  and  _128
REMARK   57  A    between atoms: _128  and  _129
REMARK   58  A    between atoms: _131  and  _133
REMARK   59  A    between atoms: _133  and  _134
REMARK   60  A    between atoms: _133  and  _136
REMARK   61  A    between atoms: _136  and  _137
REMARK   62  A    between atoms: _140  and  _142
REMARK   63  A    between atoms: _142  and  _143
REMARK   64  A    between atoms: _145  and  _147
REMARK   65  A    between atoms: _147  and  _148
REMARK   66  A    between atoms: _150  and  _152
REMARK   67  A    between atoms: _152  and  _153
REMARK   68  A    between atoms: _152  and  _155
REMARK   69  A    between atoms: _158  and  _160
REMARK   70  A    between atoms: _160  and  _161
REMARK   71  A    between atoms: _163  and  _165
REMARK   72  A    between atoms: _165  and  _166
REMARK   73  A    between atoms: _168  and  _170
REMARK   74  A    between atoms: _170  and  _171
REMARK   75  A    between atoms: _170  and  _173
REMARK   76  A    between atoms: _173  and  _174
REMARK   77  A    between atoms: _180  and  _182
REMARK   78  A    between atoms: _182  and  _183
REMARK   79  A    between atoms: _182  and  _185
REMARK   80  A    between atoms: _185  and  _186
REMARK   81  A    between atoms: _189  and  _191
REMARK   82  A    between atoms: _191  and  _192
REMARK   83  A    between atoms: _191  and  _194
REMARK   84  A    between atoms: _197  and  _199
REMARK   85  A    between atoms: _199  and  _200
REMARK   86  A    between atoms: _199  and  _202
REMARK   87  A    between atoms: _202  and  _203
REMARK   88  A    between atoms: _206  and  _208
REMARK   89  A    between atoms: _208  and  _209
REMARK   90  A    between atoms: _208  and  _211
REMARK   91  A    between atoms: _211  and  _212
REMARK   92  A    between atoms: _216  and  _217
REMARK   93  A    between atoms: _222  and  _224
REMARK   94  A    between atoms: _224  and  _225
REMARK   95  A    between atoms: _224  and  _227
REMARK   96  A    between atoms: _230  and  _232
REMARK   97  A    between atoms: _232  and  _233
REMARK   98  A    between atoms: _232  and  _235
REMARK   99  A    between atoms: _235  and  _236
REMARK  100  A    between atoms: _241  and  _243
REMARK  101  A    between atoms: _243  and  _244
REMARK  102  A    between atoms: _243  and  _246
REMARK  103  A    between atoms: _246  and  _247
REMARK  104  A    between atoms: _250  and  _252
REMARK  105  A    between atoms: _252  and  _253
REMARK  106  A    between atoms: _252  and  _255
REMARK  107  A    between atoms: _255  and  _256
REMARK  108  A    between atoms: _259  and  _261
REMARK  109  A    between atoms: _261  and  _262
REMARK  110  A    between atoms: _264  and  _266
REMARK  111  A    between atoms: _266  and  _267
REMARK  112  A    between atoms: _266  and  _269
REMARK  113  A    between atoms: _269  and  _270
REMARK  114  A    between atoms: _270  and  _271
REMARK  115  A    between atoms: _271  and  _272
REMARK  116  A    between atoms: _281  and  _283
REMARK  117  A    between atoms: _283  and  _284
REMARK  118  A    between atoms: _283  and  _286
REMARK  119  A    between atoms: _286  and  _287
REMARK  120  A    between atoms: _292  and  _294
REMARK  121  A    between atoms: _294  and  _295
REMARK  122  A    between atoms: _294  and  _297
REMARK  123  A    between atoms: _297  and  _298
REMARK  124  A    between atoms: _298  and  _299
REMARK  125  A    between atoms: _299  and  _300
REMARK  126  A    between atoms: _302  and  _303
REMARK  127  A    between atoms: _309  and  _311
REMARK  128  A    between atoms: _311  and  _312
REMARK  129  A    between atoms: _311  and  _314
REMARK  130  A    between atoms: _314  and  _315
REMARK  131  A    between atoms: _318  and  _320
REMARK  132  A    between atoms: _320  and  _321
REMARK  133  A    between atoms: _320  and  _323
REMARK  134  A    between atoms: _323  and  _324
REMARK  135  A    between atoms: _327  and  _329
REMARK  136  A    between atoms: _329  and  _330
REMARK  137  A    between atoms: _329  and  _332
REMARK  138  A    between atoms: _332  and  _333
REMARK  139  A    between atoms: _336  and  _338
REMARK  140  A    between atoms: _338  and  _339
REMARK  141  A    between atoms: _338  and  _341
REMARK  142  A    between atoms: _341  and  _342
REMARK  143  A    between atoms: _345  and  _347
REMARK  144  A    between atoms: _347  and  _348
REMARK  145  A    between atoms: _350  and  _352
REMARK  146  A    between atoms: _352  and  _353
REMARK  147  A    between atoms: _356  and  _358
REMARK  148  A    between atoms: _358  and  _359
REMARK  149  A    between atoms: _358  and  _361
REMARK  150  A    between atoms: _361  and  _362
REMARK  151  A    between atoms: _365  and  _367
REMARK  152  A    between atoms: _367  and  _368
REMARK  153  A    between atoms: _367  and  _370
REMARK  154  A    between atoms: _370  and  _371
REMARK  155  A    between atoms: _374  and  _376
REMARK  156  A    between atoms: _376  and  _377
REMARK  157  A    between atoms: _376  and  _379
REMARK  158  A    between atoms: _379  and  _380
REMARK  159  A    between atoms: _383  and  _385
REMARK  160  A    between atoms: _385  and  _386
REMARK  161  A    between atoms: _385  and  _388
REMARK  162  A    between atoms: _391  and  _393
REMARK  163  A    between atoms: _393  and  _394
REMARK  164  A    between atoms: _393  and  _396
REMARK  165  A    between atoms: _396  and  _397
REMARK  166  A    between atoms: _397  and  _398
REMARK  167  A    between atoms: _398  and  _399
REMARK  168  A    between atoms: _399  and  _400
REMARK  169  A    between atoms: _404  and  _406
REMARK  170  A    between atoms: _406  and  _407
REMARK  171  A    between atoms: _406  and  _409
REMARK  172  A    between atoms: _409  and  _410
REMARK  173  A    between atoms: _410  and  _411
REMARK  174  A    between atoms: _413  and  _415
REMARK  175  A    between atoms: _415  and  _416
REMARK  176  A    between atoms: _415  and  _418
REMARK  177  A    between atoms: _418  and  _419
REMARK  178  A    between atoms: _422  and  _424
REMARK  179  A    between atoms: _424  and  _425
REMARK  180  A    between atoms: _427  and  _429
REMARK  181  A    between atoms: _429  and  _430
REMARK  182  A    between atoms: _432  and  _434
REMARK  183  A    between atoms: _434  and  _435
REMARK  184  A    between atoms: _434  and  _437
REMARK  185  A    between atoms: _440  and  _442
REMARK  186  A    between atoms: _442  and  _443
REMARK  187  A    between atoms: _445  and  _447
REMARK  188  A    between atoms: _447  and  _448
REMARK  189  A    between atoms: _450  and  _452
REMARK  190  A    between atoms: _452  and  _453
REMARK  191  A    between atoms: _452  and  _455
REMARK  192  A    between atoms: _455  and  _456
REMARK  193  A    between atoms: _462  and  _464
REMARK  194  A    between atoms: _464  and  _465
REMARK  195  A    between atoms: _464  and  _467
REMARK  196  A    between atoms: _467  and  _468
REMARK  197  A    between atoms: _471  and  _473
REMARK  198  A    between atoms: _473  and  _474
REMARK  199  A    between atoms: _473  and  _476
REMARK  200  A    between atoms: _479  and  _481
REMARK  201  A    between atoms: _481  and  _482
REMARK  202  A    between atoms: _481  and  _484
REMARK  203  A    between atoms: _484  and  _485
REMARK  204  A    between atoms: _489  and  _490
REMARK  205  A    between atoms: _495  and  _497
REMARK  206  A    between atoms: _497  and  _498
REMARK  207  A    between atoms: _497  and  _500
REMARK  208  A    between atoms: _500  and  _501
REMARK  209  A    between atoms: _505  and  _506
REMARK  210  A    between atoms: _511  and  _513
REMARK  211  A    between atoms: _513  and  _514
REMARK  212  A    between atoms: _513  and  _516
REMARK  213  A    between atoms: _519  and  _521
REMARK  214  A    between atoms: _521  and  _522
REMARK  215  A    between atoms: _521  and  _524
REMARK  216  A    between atoms: _524  and  _525
REMARK  217  A    between atoms: _530  and  _532
REMARK  218  A    between atoms: _532  and  _533
REMARK  219  A    between atoms: _532  and  _535
REMARK  220  A    between atoms: _535  and  _536
REMARK  221  A    between atoms: _539  and  _541
REMARK  222  A    between atoms: _541  and  _542
REMARK  223  A    between atoms: _541  and  _544
REMARK  224  A    between atoms: _544  and  _545
REMARK  225  A    between atoms: _548  and  _550
REMARK  226  A    between atoms: _550  and  _551
REMARK  227  A    between atoms: _553  and  _555
REMARK  228  A    between atoms: _555  and  _556
REMARK  229  A    between atoms: _555  and  _558
REMARK  230  A    between atoms: _558  and  _559
REMARK  231  A    between atoms: _559  and  _560
REMARK  232  A    between atoms: _560  and  _561
REMARK  233  A    between atoms: _570  and  _572
REMARK  234  A    between atoms: _572  and  _573
REMARK  235  A    between atoms: _572  and  _575
REMARK  236  A    between atoms: _575  and  _576
REMARK                            x       y       z     vdW  Elec       q    Type
REMARK                         _______ _______ _______ _____ _____    ______ ____
ROOT
ATOM      1  O   HOH     1       9.000  16.286  27.147  0.00  0.00    +0.000 OA
ENDROOT
TORSDOF 0
REMARK  Name = ../refined-set-2016/2avq/2avq_pocket.pdb
REMARK  236 active torsions:
REMARK  status: ('A' for Active; 'I' for Inactive)
REMARK    1  A    between atoms: _1  and  _3
REMARK    2  A    between atoms: _3  and  _4
REMARK    3  A    between atoms: _3  and  _6
REMARK    4  A    between atoms: _6  and  _7
REMARK    5  A    between atoms: _7  and  _8
REMARK    6  A    between atoms: _8  and  _9
REMARK    7  A    between atoms: _18  and  _20
REMARK    8  A    between atoms: _20  and  _21
REMARK    9  A    between atoms: _20  and  _23
REMARK   10  A    between atoms: _23  and  _24
REMARK   11  A    between atoms: _27  and  _29
REMARK   12  A    between atoms: _29  and  _30
REMARK   13  A    between atoms: _29  and  _32
REMARK   14  A    between atoms: _32  and  _33
REMARK   15  A    between atoms: _36  and  _38
REMARK   16  A    between atoms: _38  and  _39
REMARK   17  A    between atoms: _38  and  _41
REMARK   18  A    between atoms: _41  and  _42
REMARK   19  A    between atoms: _45  and  _47
REMARK   20  A    between atoms: _47  and  _48
REMARK   21  A    between atoms: _47  and  _50
REMARK   22  A    between atoms: _50  and  _51
REMARK   23  A    between atoms: _54  and  _56
REMARK   24  A    between atoms: _56  and  _57
REMARK   25  A    between atoms: _56  and  _59
REMARK   26  A    between atoms: _59  and  _60
REMARK   27  A    between atoms: _63  and  _65
REMARK   28  A    between atoms: _65  and  _66
REMARK   29  A    between atoms: _68  and  _70
REMARK   30  A    between atoms: _70  and  _71
REMARK   31  A    between atoms: _74  and  _76
REMARK   32  A    between atoms: _76  and  _77
REMARK   33  A    between atoms: _76  and  _79
REMARK   34  A    between atoms: _79  and  _80
REMARK   35  A    between atoms: _83  and  _85
REMARK   36  A    between atoms: _85  and  _86
REMARK   37  A    between atoms: _85  and  _88
REMARK   38  A    between atoms: _88  and  _89
REMARK   39  A    between atoms: _92  and  _94
REMARK   40  A    between atoms: _94  and  _95
REMARK   41  A    between atoms: _94  and  _97
REMARK   42  A    between atoms: _97  and  _98
REMARK   43  A    between atoms: _101  and  _103
REMARK   44  A    between atoms: _103  and  _104
REMARK   45  A    between atoms: _103  and  _106
REMARK   46  A    between atoms: _109  and  _111
REMARK   47  A    between atoms: _111  and  _112
REMARK   48  A    between atoms: _111  and  _114
REMARK   49  A    between atoms: _114  and  _115
REMARK   50  A    between atoms: _115  and  _116
REMARK   51  A    between atoms: _116  and  _117
REMARK   52  A    between atoms: _117  and  _118
REMARK   53  A    between atoms: _122  and  _124
REMARK   54  A    between atoms: _124  and  _125
REMARK   55  A    between atoms: _124  and  _127
REMARK   56  A    between atoms: _127  and  _128
REMARK   57  A    between atoms: _128  and  _129
REMARK   58  A    between atoms: _131  and  _133
REMARK   59  A    between atoms: _133  and  _134
REMARK   60  A    between atoms: _133  and  _136
REMARK   61  A    between atoms: _136  and  _137
REMARK   62  A    between atoms: _140  and  _142
REMARK   63  A    between atoms: _142  and  _143
REMARK   64  A    between atoms: _145  and  _147
REMARK   65  A    between atoms: _147  and  _148
REMARK   66  A    between atoms: _150  and  _152
REMARK   67  A    between atoms: _152  and  _153
REMARK   68  A    between atoms: _152  and  _155
REMARK   69  A    between atoms: _158  and  _160
REMARK   70  A    between atoms: _160  and  _161
REMARK   71  A    between atoms: _163  and  _165
REMARK   72  A    between atoms: _165  and  _166
REMARK   73  A    between atoms: _168  and  _170
REMARK   74  A    between atoms: _170  and  _171
REMARK   75  A    between atoms: _170  and  _173
REMARK   76  A    between atoms: _173  and  _174
REMARK   77  A    between atoms: _180  and  _182
REMARK   78  A    between atoms: _182  and  _183
REMARK   79  A    between atoms: _182  and  _185
REMARK   80  A    between atoms: _185  and  _186
REMARK   81  A    between atoms: _189  and  _191
REMARK   82  A    between atoms: _191  and  _192
REMARK   83  A    between atoms: _191  and  _194
REMARK   84  A    between atoms: _197  and  _199
REMARK   85  A    between atoms: _199  and  _200
REMARK   86  A    between atoms: _199  and  _202
REMARK   87  A    between atoms: _202  and  _203
REMARK   88  A    between atoms: _206  and  _208
REMARK   89  A    between atoms: _208  and  _209
REMARK   90  A    between atoms: _208  and  _211
REMARK   91  A    between atoms: _211  and  _212
REMARK   92  A    between atoms: _216  and  _217
REMARK   93  A    between atoms: _222  and  _224
REMARK   94  A    between atoms: _224  and  _225
REMARK   95  A    between atoms: _224  and  _227
REMARK   96  A    between atoms: _230  and  _232
REMARK   97  A    between atoms: _232  and  _233
REMARK   98  A    between atoms: _232  and  _235
REMARK   99  A    between atoms: _235  and  _236
REMARK  100  A    between atoms: _241  and  _243
REMARK  101  A    between atoms: _243  and  _244
REMARK  102  A    between atoms: _243  and  _246
REMARK  103  A    between atoms: _246  and  _247
REMARK  104  A    between atoms: _250  and  _252
REMARK  105  A    between atoms: _252  and  _253
REMARK  106  A    between atoms: _252  and  _255
REMARK  107  A    between atoms: _255  and  _256
REMARK  108  A    between atoms: _259  and  _261
REMARK  109  A    between atoms: _261  and  _262
REMARK  110  A    between atoms: _264  and  _266
REMARK  111  A    between atoms: _266  and  _267
REMARK  112  A    between atoms: _266  and  _269
REMARK  113  A    between atoms: _269  and  _270
REMARK  114  A    between atoms: _270  and  _271
REMARK  115  A    between atoms: _271  and  _272
REMARK  116  A    between atoms: _281  and  _283
REMARK  117  A    between atoms: _283  and  _284
REMARK  118  A    between atoms: _283  and  _286
REMARK  119  A    between atoms: _286  and  _287
REMARK  120  A    between atoms: _292  and  _294
REMARK  121  A    between atoms: _294  and  _295
REMARK  122  A    between atoms: _294  and  _297
REMARK  123  A    between atoms: _297  and  _298
REMARK  124  A    between atoms: _298  and  _299
REMARK  125  A    between atoms: _299  and  _300
REMARK  126  A    between atoms: _302  and  _303
REMARK  127  A    between atoms: _309  and  _311
REMARK  128  A    between atoms: _311  and  _312
REMARK  129  A    between atoms: _311  and  _314
REMARK  130  A    between atoms: _314  and  _315
REMARK  131  A    between atoms: _318  and  _320
REMARK  132  A    between atoms: _320  and  _321
REMARK  133  A    between atoms: _320  and  _323
REMARK  134  A    between atoms: _323  and  _324
REMARK  135  A    between atoms: _327  and  _329
REMARK  136  A    between atoms: _329  and  _330
REMARK  137  A    between atoms: _329  and  _332
REMARK  138  A    between atoms: _332  and  _333
REMARK  139  A    between atoms: _336  and  _338
REMARK  140  A    between atoms: _338  and  _339
REMARK  141  A    between atoms: _338  and  _341
REMARK  142  A    between atoms: _341  and  _342
REMARK  143  A    between atoms: _345  and  _347
REMARK  144  A    between atoms: _347  and  _348
REMARK  145  A    between atoms: _350  and  _352
REMARK  146  A    between atoms: _352  and  _353
REMARK  147  A    between atoms: _356  and  _358
REMARK  148  A    between atoms: _358  and  _359
REMARK  149  A    between atoms: _358  and  _361
REMARK  150  A    between atoms: _361  and  _362
REMARK  151  A    between atoms: _365  and  _367
REMARK  152  A    between atoms: _367  and  _368
REMARK  153  A    between atoms: _367  and  _370
REMARK  154  A    between atoms: _370  and  _371
REMARK  155  A    between atoms: _374  and  _376
REMARK  156  A    between atoms: _376  and  _377
REMARK  157  A    between atoms: _376  and  _379
REMARK  158  A    between atoms: _379  and  _380
REMARK  159  A    between atoms: _383  and  _385
REMARK  160  A    between atoms: _385  and  _386
REMARK  161  A    between atoms: _385  and  _388
REMARK  162  A    between atoms: _391  and  _393
REMARK  163  A    between atoms: _393  and  _394
REMARK  164  A    between atoms: _393  and  _396
REMARK  165  A    between atoms: _396  and  _397
REMARK  166  A    between atoms: _397  and  _398
REMARK  167  A    between atoms: _398  and  _399
REMARK  168  A    between atoms: _399  and  _400
REMARK  169  A    between atoms: _404  and  _406
REMARK  170  A    between atoms: _406  and  _407
REMARK  171  A    between atoms: _406  and  _409
REMARK  172  A    between atoms: _409  and  _410
REMARK  173  A    between atoms: _410  and  _411
REMARK  174  A    between atoms: _413  and  _415
REMARK  175  A    between atoms: _415  and  _416
REMARK  176  A    between atoms: _415  and  _418
REMARK  177  A    between atoms: _418  and  _419
REMARK  178  A    between atoms: _422  and  _424
REMARK  179  A    between atoms: _424  and  _425
REMARK  180  A    between atoms: _427  and  _429
REMARK  181  A    between atoms: _429  and  _430
REMARK  182  A    between atoms: _432  and  _434
REMARK  183  A    between atoms: _434  and  _435
REMARK  184  A    between atoms: _434  and  _437
REMARK  185  A    between atoms: _440  and  _442
REMARK  186  A    between atoms: _442  and  _443
REMARK  187  A    between atoms: _445  and  _447
REMARK  188  A    between atoms: _447  and  _448
REMARK  189  A    between atoms: _450  and  _452
REMARK  190  A    between atoms: _452  and  _453
REMARK  191  A    between atoms: _452  and  _455
REMARK  192  A    between atoms: _455  and  _456
REMARK  193  A    between atoms: _462  and  _464
REMARK  194  A    between atoms: _464  and  _465
REMARK  195  A    between atoms: _464  and  _467
REMARK  196  A    between atoms: _467  and  _468
REMARK  197  A    between atoms: _471  and  _473
REMARK  198  A    between atoms: _473  and  _474
REMARK  199  A    between atoms: _473  and  _476
REMARK  200  A    between atoms: _479  and  _481
REMARK  201  A    between atoms: _481  and  _482
REMARK  202  A    between atoms: _481  and  _484
REMARK  203  A    between atoms: _484  and  _485
REMARK  204  A    between atoms: _489  and  _490
REMARK  205  A    between atoms: _495  and  _497
REMARK  206  A    between atoms: _497  and  _498
REMARK  207  A    between atoms: _497  and  _500
REMARK  208  A    between atoms: _500  and  _501
REMARK  209  A    between atoms: _505  and  _506
REMARK  210  A    between atoms: _511  and  _513
REMARK  211  A    between atoms: _513  and  _514
REMARK  212  A    between atoms: _513  and  _516
REMARK  213  A    between atoms: _519  and  _521
REMARK  214  A    between atoms: _521  and  _522
REMARK  215  A    between atoms: _521  and  _524
REMARK  216  A    between atoms: _524  and  _525
REMARK  217  A    between atoms: _530  and  _532
REMARK  218  A    between atoms: _532  and  _533
REMARK  219  A    between atoms: _532  and  _535
REMARK  220  A    between atoms: _535  and  _536
REMARK  221  A    between atoms: _539  and  _541
REMARK  222  A    between atoms: _541  and  _542
REMARK  223  A    between atoms: _541  and  _544
REMARK  224  A    between atoms: _544  and  _545
REMARK  225  A    between atoms: _548  and  _550
REMARK  226  A    between atoms: _550  and  _551
REMARK  227  A    between atoms: _553  and  _555
REMARK  228  A    between atoms: _555  and  _556
REMARK  229  A    between atoms: _555  and  _558
REMARK  230  A    between atoms: _558  and  _559
REMARK  231  A    between atoms: _559  and  _560
REMARK  232  A    between atoms: _560  and  _561
REMARK  233  A    between atoms: _570  and  _572
REMARK  234  A    between atoms: _572  and  _573
REMARK  235  A    between atoms: _572  and  _575
REMARK  236  A    between atoms: _575  and  _576
REMARK                            x       y       z     vdW  Elec       q    Type
REMARK                         _______ _______ _______ _____ _____    ______ ____
ROOT
ATOM      1  O   HOH     1      17.793  20.985  16.581  0.00  0.00    +0.000 OA
ENDROOT
TORSDOF 0
REMARK  Name = ../refined-set-2016/2avq/2avq_pocket.pdb
REMARK  236 active torsions:
REMARK  status: ('A' for Active; 'I' for Inactive)
REMARK    1  A    between atoms: _1  and  _3
REMARK    2  A    between atoms: _3  and  _4
REMARK    3  A    between atoms: _3  and  _6
REMARK    4  A    between atoms: _6  and  _7
REMARK    5  A    between atoms: _7  and  _8
REMARK    6  A    between atoms: _8  and  _9
REMARK    7  A    between atoms: _18  and  _20
REMARK    8  A    between atoms: _20  and  _21
REMARK    9  A    between atoms: _20  and  _23
REMARK   10  A    between atoms: _23  and  _24
REMARK   11  A    between atoms: _27  and  _29
REMARK   12  A    between atoms: _29  and  _30
REMARK   13  A    between atoms: _29  and  _32
REMARK   14  A    between atoms: _32  and  _33
REMARK   15  A    between atoms: _36  and  _38
REMARK   16  A    between atoms: _38  and  _39
REMARK   17  A    between atoms: _38  and  _41
REMARK   18  A    between atoms: _41  and  _42
REMARK   19  A    between atoms: _45  and  _47
REMARK   20  A    between atoms: _47  and  _48
REMARK   21  A    between atoms: _47  and  _50
REMARK   22  A    between atoms: _50  and  _51
REMARK   23  A    between atoms: _54  and  _56
REMARK   24  A    between atoms: _56  and  _57
REMARK   25  A    between atoms: _56  and  _59
REMARK   26  A    between atoms: _59  and  _60
REMARK   27  A    between atoms: _63  and  _65
REMARK   28  A    between atoms: _65  and  _66
REMARK   29  A    between atoms: _68  and  _70
REMARK   30  A    between atoms: _70  and  _71
REMARK   31  A    between atoms: _74  and  _76
REMARK   32  A    between atoms: _76  and  _77
REMARK   33  A    between atoms: _76  and  _79
REMARK   34  A    between atoms: _79  and  _80
REMARK   35  A    between atoms: _83  and  _85
REMARK   36  A    between atoms: _85  and  _86
REMARK   37  A    between atoms: _85  and  _88
REMARK   38  A    between atoms: _88  and  _89
REMARK   39  A    between atoms: _92  and  _94
REMARK   40  A    between atoms: _94  and  _95
REMARK   41  A    between atoms: _94  and  _97
REMARK   42  A    between atoms: _97  and  _98
REMARK   43  A    between atoms: _101  and  _103
REMARK   44  A    between atoms: _103  and  _104
REMARK   45  A    between atoms: _103  and  _106
REMARK   46  A    between atoms: _109  and  _111
REMARK   47  A    between atoms: _111  and  _112
REMARK   48  A    between atoms: _111  and  _114
REMARK   49  A    between atoms: _114  and  _115
REMARK   50  A    between atoms: _115  and  _116
REMARK   51  A    between atoms: _116  and  _117
REMARK   52  A    between atoms: _117  and  _118
REMARK   53  A    between atoms: _122  and  _124
REMARK   54  A    between atoms: _124  and  _125
REMARK   55  A    between atoms: _124  and  _127
REMARK   56  A    between atoms: _127  and  _128
REMARK   57  A    between atoms: _128  and  _129
REMARK   58  A    between atoms: _131  and  _133
REMARK   59  A    between atoms: _133  and  _134
REMARK   60  A    between atoms: _133  and  _136
REMARK   61  A    between atoms: _136  and  _137
REMARK   62  A    between atoms: _140  and  _142
REMARK   63  A    between atoms: _142  and  _143
REMARK   64  A    between atoms: _145  and  _147
REMARK   65  A    between atoms: _147  and  _148
REMARK   66  A    between atoms: _150  and  _152
REMARK   67  A    between atoms: _152  and  _153
REMARK   68  A    between atoms: _152  and  _155
REMARK   69  A    between atoms: _158  and  _160
REMARK   70  A    between atoms: _160  and  _161
REMARK   71  A    between atoms: _163  and  _165
REMARK   72  A    between atoms: _165  and  _166
REMARK   73  A    between atoms: _168  and  _170
REMARK   74  A    between atoms: _170  and  _171
REMARK   75  A    between atoms: _170  and  _173
REMARK   76  A    between atoms: _173  and  _174
REMARK   77  A    between atoms: _180  and  _182
REMARK   78  A    between atoms: _182  and  _183
REMARK   79  A    between atoms: _182  and  _185
REMARK   80  A    between atoms: _185  and  _186
REMARK   81  A    between atoms: _189  and  _191
REMARK   82  A    between atoms: _191  and  _192
REMARK   83  A    between atoms: _191  and  _194
REMARK   84  A    between atoms: _197  and  _199
REMARK   85  A    between atoms: _199  and  _200
REMARK   86  A    between atoms: _199  and  _202
REMARK   87  A    between atoms: _202  and  _203
REMARK   88  A    between atoms: _206  and  _208
REMARK   89  A    between atoms: _208  and  _209
REMARK   90  A    between atoms: _208  and  _211
REMARK   91  A    between atoms: _211  and  _212
REMARK   92  A    between atoms: _216  and  _217
REMARK   93  A    between atoms: _222  and  _224
REMARK   94  A    between atoms: _224  and  _225
REMARK   95  A    between atoms: _224  and  _227
REMARK   96  A    between atoms: _230  and  _232
REMARK   97  A    between atoms: _232  and  _233
REMARK   98  A    between atoms: _232  and  _235
REMARK   99  A    between atoms: _235  and  _236
REMARK  100  A    between atoms: _241  and  _243
REMARK  101  A    between atoms: _243  and  _244
REMARK  102  A    between atoms: _243  and  _246
REMARK  103  A    between atoms: _246  and  _247
REMARK  104  A    between atoms: _250  and  _252
REMARK  105  A    between atoms: _252  and  _253
REMARK  106  A    between atoms: _252  and  _255
REMARK  107  A    between atoms: _255  and  _256
REMARK  108  A    between atoms: _259  and  _261
REMARK  109  A    between atoms: _261  and  _262
REMARK  110  A    between atoms: _264  and  _266
REMARK  111  A    between atoms: _266  and  _267
REMARK  112  A    between atoms: _266  and  _269
REMARK  113  A    between atoms: _269  and  _270
REMARK  114  A    between atoms: _270  and  _271
REMARK  115  A    between atoms: _271  and  _272
REMARK  116  A    between atoms: _281  and  _283
REMARK  117  A    between atoms: _283  and  _284
REMARK  118  A    between atoms: _283  and  _286
REMARK  119  A    between atoms: _286  and  _287
REMARK  120  A    between atoms: _292  and  _294
REMARK  121  A    between atoms: _294  and  _295
REMARK  122  A    between atoms: _294  and  _297
REMARK  123  A    between atoms: _297  and  _298
REMARK  124  A    between atoms: _298  and  _299
REMARK  125  A    between atoms: _299  and  _300
REMARK  126  A    between atoms: _302  and  _303
REMARK  127  A    between atoms: _309  and  _311
REMARK  128  A    between atoms: _311  and  _312
REMARK  129  A    between atoms: _311  and  _314
REMARK  130  A    between atoms: _314  and  _315
REMARK  131  A    between atoms: _318  and  _320
REMARK  132  A    between atoms: _320  and  _321
REMARK  133  A    between atoms: _320  and  _323
REMARK  134  A    between atoms: _323  and  _324
REMARK  135  A    between atoms: _327  and  _329
REMARK  136  A    between atoms: _329  and  _330
REMARK  137  A    between atoms: _329  and  _332
REMARK  138  A    between atoms: _332  and  _333
REMARK  139  A    between atoms: _336  and  _338
REMARK  140  A    between atoms: _338  and  _339
REMARK  141  A    between atoms: _338  and  _341
REMARK  142  A    between atoms: _341  and  _342
REMARK  143  A    between atoms: _345  and  _347
REMARK  144  A    between atoms: _347  and  _348
REMARK  145  A    between atoms: _350  and  _352
REMARK  146  A    between atoms: _352  and  _353
REMARK  147  A    between atoms: _356  and  _358
REMARK  148  A    between atoms: _358  and  _359
REMARK  149  A    between atoms: _358  and  _361
REMARK  150  A    between atoms: _361  and  _362
REMARK  151  A    between atoms: _365  and  _367
REMARK  152  A    between atoms: _367  and  _368
REMARK  153  A    between atoms: _367  and  _370
REMARK  154  A    between atoms: _370  and  _371
REMARK  155  A    between atoms: _374  and  _376
REMARK  156  A    between atoms: _376  and  _377
REMARK  157  A    between atoms: _376  and  _379
REMARK  158  A    between atoms: _379  and  _380
REMARK  159  A    between atoms: _383  and  _385
REMARK  160  A    between atoms: _385  and  _386
REMARK  161  A    between atoms: _385  and  _388
REMARK  162  A    between atoms: _391  and  _393
REMARK  163  A    between atoms: _393  and  _394
REMARK  164  A    between atoms: _393  and  _396
REMARK  165  A    between atoms: _396  and  _397
REMARK  166  A    between atoms: _397  and  _398
REMARK  167  A    between atoms: _398  and  _399
REMARK  168  A    between atoms: _399  and  _400
REMARK  169  A    between atoms: _404  and  _406
REMARK  170  A    between atoms: _406  and  _407
REMARK  171  A    between atoms: _406  and  _409
REMARK  172  A    between atoms: _409  and  _410
REMARK  173  A    between atoms: _410  and  _411
REMARK  174  A    between atoms: _413  and  _415
REMARK  175  A    between atoms: _415  and  _416
REMARK  176  A    between atoms: _415  and  _418
REMARK  177  A    between atoms: _418  and  _419
REMARK  178  A    between atoms: _422  and  _424
REMARK  179  A    between atoms: _424  and  _425
REMARK  180  A    between atoms: _427  and  _429
REMARK  181  A    between atoms: _429  and  _430
REMARK  182  A    between atoms: _432  and  _434
REMARK  183  A    between atoms: _434  and  _435
REMARK  184  A    between atoms: _434  and  _437
REMARK  185  A    between atoms: _440  and  _442
REMARK  186  A    between atoms: _442  and  _443
REMARK  187  A    between atoms: _445  and  _447
REMARK  188  A    between atoms: _447  and  _448
REMARK  189  A    between atoms: _450  and  _452
REMARK  190  A    between atoms: _452  and  _453
REMARK  191  A    between atoms: _452  and  _455
REMARK  192  A    between atoms: _455  and  _456
REMARK  193  A    between atoms: _462  and  _464
REMARK  194  A    between atoms: _464  and  _465
REMARK  195  A    between atoms: _464  and  _467
REMARK  196  A    between atoms: _467  and  _468
REMARK  197  A    between atoms: _471  and  _473
REMARK  198  A    between atoms: _473  and  _474
REMARK  199  A    between atoms: _473  and  _476
REMARK  200  A    between atoms: _479  and  _481
REMARK  201  A    between atoms: _481  and  _482
REMARK  202  A    between atoms: _481  and  _484
REMARK  203  A    between atoms: _484  and  _485
REMARK  204  A    between atoms: _489  and  _490
REMARK  205  A    between atoms: _495  and  _497
REMARK  206  A    between atoms: _497  and  _498
REMARK  207  A    between atoms: _497  and  _500
REMARK  208  A    between atoms: _500  and  _501
REMARK  209  A    between atoms: _505  and  _506
REMARK  210  A    between atoms: _511  and  _513
REMARK  211  A    between atoms: _513  and  _514
REMARK  212  A    between atoms: _513  and  _516
REMARK  213  A    between atoms: _519  and  _521
REMARK  214  A    between atoms: _521  and  _522
REMARK  215  A    between atoms: _521  and  _524
REMARK  216  A    between atoms: _524  and  _525
REMARK  217  A    between atoms: _530  and  _532
REMARK  218  A    between atoms: _532  and  _533
REMARK  219  A    between atoms: _532  and  _535
REMARK  220  A    between atoms: _535  and  _536
REMARK  221  A    between atoms: _539  and  _541
REMARK  222  A    between atoms: _541  and  _542
REMARK  223  A    between atoms: _541  and  _544
REMARK  224  A    between atoms: _544  and  _545
REMARK  225  A    between atoms: _548  and  _550
REMARK  226  A    between atoms: _550  and  _551
REMARK  227  A    between atoms: _553  and  _555
REMARK  228  A    between atoms: _555  and  _556
REMARK  229  A    between atoms: _555  and  _558
REMARK  230  A    between atoms: _558  and  _559
REMARK  231  A    between atoms: _559  and  _560
REMARK  232  A    between atoms: _560  and  _561
REMARK  233  A    between atoms: _570  and  _572
REMARK  234  A    between atoms: _572  and  _573
REMARK  235  A    between atoms: _572  and  _575
REMARK  236  A    between atoms: _575  and  _576
REMARK                            x       y       z     vdW  Elec       q    Type
REMARK                         _______ _______ _______ _____ _____    ______ ____
ROOT
ATOM      1  O   HOH     1       8.862  21.591  14.046  0.00  0.00    +0.000 OA
ENDROOT
TORSDOF 0
REMARK  Name = ../refined-set-2016/2avq/2avq_pocket.pdb
REMARK  236 active torsions:
REMARK  status: ('A' for Active; 'I' for Inactive)
REMARK    1  A    between atoms: _1  and  _3
REMARK    2  A    between atoms: _3  and  _4
REMARK    3  A    between atoms: _3  and  _6
REMARK    4  A    between atoms: _6  and  _7
REMARK    5  A    between atoms: _7  and  _8
REMARK    6  A    between atoms: _8  and  _9
REMARK    7  A    between atoms: _18  and  _20
REMARK    8  A    between atoms: _20  and  _21
REMARK    9  A    between atoms: _20  and  _23
REMARK   10  A    between atoms: _23  and  _24
REMARK   11  A    between atoms: _27  and  _29
REMARK   12  A    between atoms: _29  and  _30
REMARK   13  A    between atoms: _29  and  _32
REMARK   14  A    between atoms: _32  and  _33
REMARK   15  A    between atoms: _36  and  _38
REMARK   16  A    between atoms: _38  and  _39
REMARK   17  A    between atoms: _38  and  _41
REMARK   18  A    between atoms: _41  and  _42
REMARK   19  A    between atoms: _45  and  _47
REMARK   20  A    between atoms: _47  and  _48
REMARK   21  A    between atoms: _47  and  _50
REMARK   22  A    between atoms: _50  and  _51
REMARK   23  A    between atoms: _54  and  _56
REMARK   24  A    between atoms: _56  and  _57
REMARK   25  A    between atoms: _56  and  _59
REMARK   26  A    between atoms: _59  and  _60
REMARK   27  A    between atoms: _63  and  _65
REMARK   28  A    between atoms: _65  and  _66
REMARK   29  A    between atoms: _68  and  _70
REMARK   30  A    between atoms: _70  and  _71
REMARK   31  A    between atoms: _74  and  _76
REMARK   32  A    between atoms: _76  and  _77
REMARK   33  A    between atoms: _76  and  _79
REMARK   34  A    between atoms: _79  and  _80
REMARK   35  A    between atoms: _83  and  _85
REMARK   36  A    between atoms: _85  and  _86
REMARK   37  A    between atoms: _85  and  _88
REMARK   38  A    between atoms: _88  and  _89
REMARK   39  A    between atoms: _92  and  _94
REMARK   40  A    between atoms: _94  and  _95
REMARK   41  A    between atoms: _94  and  _97
REMARK   42  A    between atoms: _97  and  _98
REMARK   43  A    between atoms: _101  and  _103
REMARK   44  A    between atoms: _103  and  _104
REMARK   45  A    between atoms: _103  and  _106
REMARK   46  A    between atoms: _109  and  _111
REMARK   47  A    between atoms: _111  and  _112
REMARK   48  A    between atoms: _111  and  _114
REMARK   49  A    between atoms: _114  and  _115
REMARK   50  A    between atoms: _115  and  _116
REMARK   51  A    between atoms: _116  and  _117
REMARK   52  A    between atoms: _117  and  _118
REMARK   53  A    between atoms: _122  and  _124
REMARK   54  A    between atoms: _124  and  _125
REMARK   55  A    between atoms: _124  and  _127
REMARK   56  A    between atoms: _127  and  _128
REMARK   57  A    between atoms: _128  and  _129
REMARK   58  A    between atoms: _131  and  _133
REMARK   59  A    between atoms: _133  and  _134
REMARK   60  A    between atoms: _133  and  _136
REMARK   61  A    between atoms: _136  and  _137
REMARK   62  A    between atoms: _140  and  _142
REMARK   63  A    between atoms: _142  and  _143
REMARK   64  A    between atoms: _145  and  _147
REMARK   65  A    between atoms: _147  and  _148
REMARK   66  A    between atoms: _150  and  _152
REMARK   67  A    between atoms: _152  and  _153
REMARK   68  A    between atoms: _152  and  _155
REMARK   69  A    between atoms: _158  and  _160
REMARK   70  A    between atoms: _160  and  _161
REMARK   71  A    between atoms: _163  and  _165
REMARK   72  A    between atoms: _165  and  _166
REMARK   73  A    between atoms: _168  and  _170
REMARK   74  A    between atoms: _170  and  _171
REMARK   75  A    between atoms: _170  and  _173
REMARK   76  A    between atoms: _173  and  _174
REMARK   77  A    between atoms: _180  and  _182
REMARK   78  A    between atoms: _182  and  _183
REMARK   79  A    between atoms: _182  and  _185
REMARK   80  A    between atoms: _185  and  _186
REMARK   81  A    between atoms: _189  and  _191
REMARK   82  A    between atoms: _191  and  _192
REMARK   83  A    between atoms: _191  and  _194
REMARK   84  A    between atoms: _197  and  _199
REMARK   85  A    between atoms: _199  and  _200
REMARK   86  A    between atoms: _199  and  _202
REMARK   87  A    between atoms: _202  and  _203
REMARK   88  A    between atoms: _206  and  _208
REMARK   89  A    between atoms: _208  and  _209
REMARK   90  A    between atoms: _208  and  _211
REMARK   91  A    between atoms: _211  and  _212
REMARK   92  A    between atoms: _216  and  _217
REMARK   93  A    between atoms: _222  and  _224
REMARK   94  A    between atoms: _224  and  _225
REMARK   95  A    between atoms: _224  and  _227
REMARK   96  A    between atoms: _230  and  _232
REMARK   97  A    between atoms: _232  and  _233
REMARK   98  A    between atoms: _232  and  _235
REMARK   99  A    between atoms: _235  and  _236
REMARK  100  A    between atoms: _241  and  _243
REMARK  101  A    between atoms: _243  and  _244
REMARK  102  A    between atoms: _243  and  _246
REMARK  103  A    between atoms: _246  and  _247
REMARK  104  A    between atoms: _250  and  _252
REMARK  105  A    between atoms: _252  and  _253
REMARK  106  A    between atoms: _252  and  _255
REMARK  107  A    between atoms: _255  and  _256
REMARK  108  A    between atoms: _259  and  _261
REMARK  109  A    between atoms: _261  and  _262
REMARK  110  A    between atoms: _264  and  _266
REMARK  111  A    between atoms: _266  and  _267
REMARK  112  A    between atoms: _266  and  _269
REMARK  113  A    between atoms: _269  and  _270
REMARK  114  A    between atoms: _270  and  _271
REMARK  115  A    between atoms: _271  and  _272
REMARK  116  A    between atoms: _281  and  _283
REMARK  117  A    between atoms: _283  and  _284
REMARK  118  A    between atoms: _283  and  _286
REMARK  119  A    between atoms: _286  and  _287
REMARK  120  A    between atoms: _292  and  _294
REMARK  121  A    between atoms: _294  and  _295
REMARK  122  A    between atoms: _294  and  _297
REMARK  123  A    between atoms: _297  and  _298
REMARK  124  A    between atoms: _298  and  _299
REMARK  125  A    between atoms: _299  and  _300
REMARK  126  A    between atoms: _302  and  _303
REMARK  127  A    between atoms: _309  and  _311
REMARK  128  A    between atoms: _311  and  _312
REMARK  129  A    between atoms: _311  and  _314
REMARK  130  A    between atoms: _314  and  _315
REMARK  131  A    between atoms: _318  and  _320
REMARK  132  A    between atoms: _320  and  _321
REMARK  133  A    between atoms: _320  and  _323
REMARK  134  A    between atoms: _323  and  _324
REMARK  135  A    between atoms: _327  and  _329
REMARK  136  A    between atoms: _329  and  _330
REMARK  137  A    between atoms: _329  and  _332
REMARK  138  A    between atoms: _332  and  _333
REMARK  139  A    between atoms: _336  and  _338
REMARK  140  A    between atoms: _338  and  _339
REMARK  141  A    between atoms: _338  and  _341
REMARK  142  A    between atoms: _341  and  _342
REMARK  143  A    between atoms: _345  and  _347
REMARK  144  A    between atoms: _347  and  _348
REMARK  145  A    between atoms: _350  and  _352
REMARK  146  A    between atoms: _352  and  _353
REMARK  147  A    between atoms: _356  and  _358
REMARK  148  A    between atoms: _358  and  _359
REMARK  149  A    between atoms: _358  and  _361
REMARK  150  A    between atoms: _361  and  _362
REMARK  151  A    between atoms: _365  and  _367
REMARK  152  A    between atoms: _367  and  _368
REMARK  153  A    between atoms: _367  and  _370
REMARK  154  A    between atoms: _370  and  _371
REMARK  155  A    between atoms: _374  and  _376
REMARK  156  A    between atoms: _376  and  _377
REMARK  157  A    between atoms: _376  and  _379
REMARK  158  A    between atoms: _379  and  _380
REMARK  159  A    between atoms: _383  and  _385
REMARK  160  A    between atoms: _385  and  _386
REMARK  161  A    between atoms: _385  and  _388
REMARK  162  A    between atoms: _391  and  _393
REMARK  163  A    between atoms: _393  and  _394
REMARK  164  A    between atoms: _393  and  _396
REMARK  165  A    between atoms: _396  and  _397
REMARK  166  A    between atoms: _397  and  _398
REMARK  167  A    between atoms: _398  and  _399
REMARK  168  A    between atoms: _399  and  _400
REMARK  169  A    between atoms: _404  and  _406
REMARK  170  A    between atoms: _406  and  _407
REMARK  171  A    between atoms: _406  and  _409
REMARK  172  A    between atoms: _409  and  _410
REMARK  173  A    between atoms: _410  and  _411
REMARK  174  A    between atoms: _413  and  _415
REMARK  175  A    between atoms: _415  and  _416
REMARK  176  A    between atoms: _415  and  _418
REMARK  177  A    between atoms: _418  and  _419
REMARK  178  A    between atoms: _422  and  _424
REMARK  179  A    between atoms: _424  and  _425
REMARK  180  A    between atoms: _427  and  _429
REMARK  181  A    between atoms: _429  and  _430
REMARK  182  A    between atoms: _432  and  _434
REMARK  183  A    between atoms: _434  and  _435
REMARK  184  A    between atoms: _434  and  _437
REMARK  185  A    between atoms: _440  and  _442
REMARK  186  A    between atoms: _442  and  _443
REMARK  187  A    between atoms: _445  and  _447
REMARK  188  A    between atoms: _447  and  _448
REMARK  189  A    between atoms: _450  and  _452
REMARK  190  A    between atoms: _452  and  _453
REMARK  191  A    between atoms: _452  and  _455
REMARK  192  A    between atoms: _455  and  _456
REMARK  193  A    between atoms: _462  and  _464
REMARK  194  A    between atoms: _464  and  _465
REMARK  195  A    between atoms: _464  and  _467
REMARK  196  A    between atoms: _467  and  _468
REMARK  197  A    between atoms: _471  and  _473
REMARK  198  A    between atoms: _473  and  _474
REMARK  199  A    between atoms: _473  and  _476
REMARK  200  A    between atoms: _479  and  _481
REMARK  201  A    between atoms: _481  and  _482
REMARK  202  A    between atoms: _481  and  _484
REMARK  203  A    between atoms: _484  and  _485
REMARK  204  A    between atoms: _489  and  _490
REMARK  205  A    between atoms: _495  and  _497
REMARK  206  A    between atoms: _497  and  _498
REMARK  207  A    between atoms: _497  and  _500
REMARK  208  A    between atoms: _500  and  _501
REMARK  209  A    between atoms: _505  and  _506
REMARK  210  A    between atoms: _511  and  _513
REMARK  211  A    between atoms: _513  and  _514
REMARK  212  A    between atoms: _513  and  _516
REMARK  213  A    between atoms: _519  and  _521
REMARK  214  A    between atoms: _521  and  _522
REMARK  215  A    between atoms: _521  and  _524
REMARK  216  A    between atoms: _524  and  _525
REMARK  217  A    between atoms: _530  and  _532
REMARK  218  A    between atoms: _532  and  _533
REMARK  219  A    between atoms: _532  and  _535
REMARK  220  A    between atoms: _535  and  _536
REMARK  221  A    between atoms: _539  and  _541
REMARK  222  A    between atoms: _541  and  _542
REMARK  223  A    between atoms: _541  and  _544
REMARK  224  A    between atoms: _544  and  _545
REMARK  225  A    between atoms: _548  and  _550
REMARK  226  A    between atoms: _550  and  _551
REMARK  227  A    between atoms: _553  and  _555
REMARK  228  A    between atoms: _555  and  _556
REMARK  229  A    between atoms: _555  and  _558
REMARK  230  A    between atoms: _558  and  _559
REMARK  231  A    between atoms: _559  and  _560
REMARK  232  A    between atoms: _560  and  _561
REMARK  233  A    between atoms: _570  and  _572
REMARK  234  A    between atoms: _572  and  _573
REMARK  235  A    between atoms: _572  and  _575
REMARK  236  A    between atoms: _575  and  _576
REMARK                            x       y       z     vdW  Elec       q    Type
REMARK                         _______ _______ _______ _____ _____    ______ ____
ROOT
ATOM      1  O   HOH     1      21.877  26.998  22.558  0.00  0.00    +0.000 OA
ENDROOT
TORSDOF 0
REMARK  Name = ../refined-set-2016/2avq/2avq_pocket.pdb
REMARK  236 active torsions:
REMARK  status: ('A' for Active; 'I' for Inactive)
REMARK    1  A    between atoms: _1  and  _3
REMARK    2  A    between atoms: _3  and  _4
REMARK    3  A    between atoms: _3  and  _6
REMARK    4  A    between atoms: _6  and  _7
REMARK    5  A    between atoms: _7  and  _8
REMARK    6  A    between atoms: _8  and  _9
REMARK    7  A    between atoms: _18  and  _20
REMARK    8  A    between atoms: _20  and  _21
REMARK    9  A    between atoms: _20  and  _23
REMARK   10  A    between atoms: _23  and  _24
REMARK   11  A    between atoms: _27  and  _29
REMARK   12  A    between atoms: _29  and  _30
REMARK   13  A    between atoms: _29  and  _32
REMARK   14  A    between atoms: _32  and  _33
REMARK   15  A    between atoms: _36  and  _38
REMARK   16  A    between atoms: _38  and  _39
REMARK   17  A    between atoms: _38  and  _41
REMARK   18  A    between atoms: _41  and  _42
REMARK   19  A    between atoms: _45  and  _47
REMARK   20  A    between atoms: _47  and  _48
REMARK   21  A    between atoms: _47  and  _50
REMARK   22  A    between atoms: _50  and  _51
REMARK   23  A    between atoms: _54  and  _56
REMARK   24  A    between atoms: _56  and  _57
REMARK   25  A    between atoms: _56  and  _59
REMARK   26  A    between atoms: _59  and  _60
REMARK   27  A    between atoms: _63  and  _65
REMARK   28  A    between atoms: _65  and  _66
REMARK   29  A    between atoms: _68  and  _70
REMARK   30  A    between atoms: _70  and  _71
REMARK   31  A    between atoms: _74  and  _76
REMARK   32  A    between atoms: _76  and  _77
REMARK   33  A    between atoms: _76  and  _79
REMARK   34  A    between atoms: _79  and  _80
REMARK   35  A    between atoms: _83  and  _85
REMARK   36  A    between atoms: _85  and  _86
REMARK   37  A    between atoms: _85  and  _88
REMARK   38  A    between atoms: _88  and  _89
REMARK   39  A    between atoms: _92  and  _94
REMARK   40  A    between atoms: _94  and  _95
REMARK   41  A    between atoms: _94  and  _97
REMARK   42  A    between atoms: _97  and  _98
REMARK   43  A    between atoms: _101  and  _103
REMARK   44  A    between atoms: _103  and  _104
REMARK   45  A    between atoms: _103  and  _106
REMARK   46  A    between atoms: _109  and  _111
REMARK   47  A    between atoms: _111  and  _112
REMARK   48  A    between atoms: _111  and  _114
REMARK   49  A    between atoms: _114  and  _115
REMARK   50  A    between atoms: _115  and  _116
REMARK   51  A    between atoms: _116  and  _117
REMARK   52  A    between atoms: _117  and  _118
REMARK   53  A    between atoms: _122  and  _124
REMARK   54  A    between atoms: _124  and  _125
REMARK   55  A    between atoms: _124  and  _127
REMARK   56  A    between atoms: _127  and  _128
REMARK   57  A    between atoms: _128  and  _129
REMARK   58  A    between atoms: _131  and  _133
REMARK   59  A    between atoms: _133  and  _134
REMARK   60  A    between atoms: _133  and  _136
REMARK   61  A    between atoms: _136  and  _137
REMARK   62  A    between atoms: _140  and  _142
REMARK   63  A    between atoms: _142  and  _143
REMARK   64  A    between atoms: _145  and  _147
REMARK   65  A    between atoms: _147  and  _148
REMARK   66  A    between atoms: _150  and  _152
REMARK   67  A    between atoms: _152  and  _153
REMARK   68  A    between atoms: _152  and  _155
REMARK   69  A    between atoms: _158  and  _160
REMARK   70  A    between atoms: _160  and  _161
REMARK   71  A    between atoms: _163  and  _165
REMARK   72  A    between atoms: _165  and  _166
REMARK   73  A    between atoms: _168  and  _170
REMARK   74  A    between atoms: _170  and  _171
REMARK   75  A    between atoms: _170  and  _173
REMARK   76  A    between atoms: _173  and  _174
REMARK   77  A    between atoms: _180  and  _182
REMARK   78  A    between atoms: _182  and  _183
REMARK   79  A    between atoms: _182  and  _185
REMARK   80  A    between atoms: _185  and  _186
REMARK   81  A    between atoms: _189  and  _191
REMARK   82  A    between atoms: _191  and  _192
REMARK   83  A    between atoms: _191  and  _194
REMARK   84  A    between atoms: _197  and  _199
REMARK   85  A    between atoms: _199  and  _200
REMARK   86  A    between atoms: _199  and  _202
REMARK   87  A    between atoms: _202  and  _203
REMARK   88  A    between atoms: _206  and  _208
REMARK   89  A    between atoms: _208  and  _209
REMARK   90  A    between atoms: _208  and  _211
REMARK   91  A    between atoms: _211  and  _212
REMARK   92  A    between atoms: _216  and  _217
REMARK   93  A    between atoms: _222  and  _224
REMARK   94  A    between atoms: _224  and  _225
REMARK   95  A    between atoms: _224  and  _227
REMARK   96  A    between atoms: _230  and  _232
REMARK   97  A    between atoms: _232  and  _233
REMARK   98  A    between atoms: _232  and  _235
REMARK   99  A    between atoms: _235  and  _236
REMARK  100  A    between atoms: _241  and  _243
REMARK  101  A    between atoms: _243  and  _244
REMARK  102  A    between atoms: _243  and  _246
REMARK  103  A    between atoms: _246  and  _247
REMARK  104  A    between atoms: _250  and  _252
REMARK  105  A    between atoms: _252  and  _253
REMARK  106  A    between atoms: _252  and  _255
REMARK  107  A    between atoms: _255  and  _256
REMARK  108  A    between atoms: _259  and  _261
REMARK  109  A    between atoms: _261  and  _262
REMARK  110  A    between atoms: _264  and  _266
REMARK  111  A    between atoms: _266  and  _267
REMARK  112  A    between atoms: _266  and  _269
REMARK  113  A    between atoms: _269  and  _270
REMARK  114  A    between atoms: _270  and  _271
REMARK  115  A    between atoms: _271  and  _272
REMARK  116  A    between atoms: _281  and  _283
REMARK  117  A    between atoms: _283  and  _284
REMARK  118  A    between atoms: _283  and  _286
REMARK  119  A    between atoms: _286  and  _287
REMARK  120  A    between atoms: _292  and  _294
REMARK  121  A    between atoms: _294  and  _295
REMARK  122  A    between atoms: _294  and  _297
REMARK  123  A    between atoms: _297  and  _298
REMARK  124  A    between atoms: _298  and  _299
REMARK  125  A    between atoms: _299  and  _300
REMARK  126  A    between atoms: _302  and  _303
REMARK  127  A    between atoms: _309  and  _311
REMARK  128  A    between atoms: _311  and  _312
REMARK  129  A    between atoms: _311  and  _314
REMARK  130  A    between atoms: _314  and  _315
REMARK  131  A    between atoms: _318  and  _320
REMARK  132  A    between atoms: _320  and  _321
REMARK  133  A    between atoms: _320  and  _323
REMARK  134  A    between atoms: _323  and  _324
REMARK  135  A    between atoms: _327  and  _329
REMARK  136  A    between atoms: _329  and  _330
REMARK  137  A    between atoms: _329  and  _332
REMARK  138  A    between atoms: _332  and  _333
REMARK  139  A    between atoms: _336  and  _338
REMARK  140  A    between atoms: _338  and  _339
REMARK  141  A    between atoms: _338  and  _341
REMARK  142  A    between atoms: _341  and  _342
REMARK  143  A    between atoms: _345  and  _347
REMARK  144  A    between atoms: _347  and  _348
REMARK  145  A    between atoms: _350  and  _352
REMARK  146  A    between atoms: _352  and  _353
REMARK  147  A    between atoms: _356  and  _358
REMARK  148  A    between atoms: _358  and  _359
REMARK  149  A    between atoms: _358  and  _361
REMARK  150  A    between atoms: _361  and  _362
REMARK  151  A    between atoms: _365  and  _367
REMARK  152  A    between atoms: _367  and  _368
REMARK  153  A    between atoms: _367  and  _370
REMARK  154  A    between atoms: _370  and  _371
REMARK  155  A    between atoms: _374  and  _376
REMARK  156  A    between atoms: _376  and  _377
REMARK  157  A    between atoms: _376  and  _379
REMARK  158  A    between atoms: _379  and  _380
REMARK  159  A    between atoms: _383  and  _385
REMARK  160  A    between atoms: _385  and  _386
REMARK  161  A    between atoms: _385  and  _388
REMARK  162  A    between atoms: _391  and  _393
REMARK  163  A    between atoms: _393  and  _394
REMARK  164  A    between atoms: _393  and  _396
REMARK  165  A    between atoms: _396  and  _397
REMARK  166  A    between atoms: _397  and  _398
REMARK  167  A    between atoms: _398  and  _399
REMARK  168  A    between atoms: _399  and  _400
REMARK  169  A    between atoms: _404  and  _406
REMARK  170  A    between atoms: _406  and  _407
REMARK  171  A    between atoms: _406  and  _409
REMARK  172  A    between atoms: _409  and  _410
REMARK  173  A    between atoms: _410  and  _411
REMARK  174  A    between atoms: _413  and  _415
REMARK  175  A    between atoms: _415  and  _416
REMARK  176  A    between atoms: _415  and  _418
REMARK  177  A    between atoms: _418  and  _419
REMARK  178  A    between atoms: _422  and  _424
REMARK  179  A    between atoms: _424  and  _425
REMARK  180  A    between atoms: _427  and  _429
REMARK  181  A    between atoms: _429  and  _430
REMARK  182  A    between atoms: _432  and  _434
REMARK  183  A    between atoms: _434  and  _435
REMARK  184  A    between atoms: _434  and  _437
REMARK  185  A    between atoms: _440  and  _442
REMARK  186  A    between atoms: _442  and  _443
REMARK  187  A    between atoms: _445  and  _447
REMARK  188  A    between atoms: _447  and  _448
REMARK  189  A    between atoms: _450  and  _452
REMARK  190  A    between atoms: _452  and  _453
REMARK  191  A    between atoms: _452  and  _455
REMARK  192  A    between atoms: _455  and  _456
REMARK  193  A    between atoms: _462  and  _464
REMARK  194  A    between atoms: _464  and  _465
REMARK  195  A    between atoms: _464  and  _467
REMARK  196  A    between atoms: _467  and  _468
REMARK  197  A    between atoms: _471  and  _473
REMARK  198  A    between atoms: _473  and  _474
REMARK  199  A    between atoms: _473  and  _476
REMARK  200  A    between atoms: _479  and  _481
REMARK  201  A    between atoms: _481  and  _482
REMARK  202  A    between atoms: _481  and  _484
REMARK  203  A    between atoms: _484  and  _485
REMARK  204  A    between atoms: _489  and  _490
REMARK  205  A    between atoms: _495  and  _497
REMARK  206  A    between atoms: _497  and  _498
REMARK  207  A    between atoms: _497  and  _500
REMARK  208  A    between atoms: _500  and  _501
REMARK  209  A    between atoms: _505  and  _506
REMARK  210  A    between atoms: _511  and  _513
REMARK  211  A    between atoms: _513  and  _514
REMARK  212  A    between atoms: _513  and  _516
REMARK  213  A    between atoms: _519  and  _521
REMARK  214  A    between atoms: _521  and  _522
REMARK  215  A    between atoms: _521  and  _524
REMARK  216  A    between atoms: _524  and  _525
REMARK  217  A    between atoms: _530  and  _532
REMARK  218  A    between atoms: _532  and  _533
REMARK  219  A    between atoms: _532  and  _535
REMARK  220  A    between atoms: _535  and  _536
REMARK  221  A    between atoms: _539  and  _541
REMARK  222  A    between atoms: _541  and  _542
REMARK  223  A    between atoms: _541  and  _544
REMARK  224  A    between atoms: _544  and  _545
REMARK  225  A    between atoms: _548  and  _550
REMARK  226  A    between atoms: _550  and  _551
REMARK  227  A    between atoms: _553  and  _555
REMARK  228  A    between atoms: _555  and  _556
REMARK  229  A    between atoms: _555  and  _558
REMARK  230  A    between atoms: _558  and  _559
REMARK  231  A    between atoms: _559  and  _560
REMARK  232  A    between atoms: _560  and  _561
REMARK  233  A    between atoms: _570  and  _572
REMARK  234  A    between atoms: _572  and  _573
REMARK  235  A    between atoms: _572  and  _575
REMARK  236  A    between atoms: _575  and  _576
REMARK                            x       y       z     vdW  Elec       q    Type
REMARK                         _______ _______ _______ _____ _____    ______ ____
ROOT
ATOM      1  O   HOH     1      24.843  29.132  15.236  0.00  0.00    +0.000 OA
ENDROOT
TORSDOF 0
REMARK  Name = ../refined-set-2016/2avq/2avq_pocket.pdb
REMARK  236 active torsions:
REMARK  status: ('A' for Active; 'I' for Inactive)
REMARK    1  A    between atoms: _1  and  _3
REMARK    2  A    between atoms: _3  and  _4
REMARK    3  A    between atoms: _3  and  _6
REMARK    4  A    between atoms: _6  and  _7
REMARK    5  A    between atoms: _7  and  _8
REMARK    6  A    between atoms: _8  and  _9
REMARK    7  A    between atoms: _18  and  _20
REMARK    8  A    between atoms: _20  and  _21
REMARK    9  A    between atoms: _20  and  _23
REMARK   10  A    between atoms: _23  and  _24
REMARK   11  A    between atoms: _27  and  _29
REMARK   12  A    between atoms: _29  and  _30
REMARK   13  A    between atoms: _29  and  _32
REMARK   14  A    between atoms: _32  and  _33
REMARK   15  A    between atoms: _36  and  _38
REMARK   16  A    between atoms: _38  and  _39
REMARK   17  A    between atoms: _38  and  _41
REMARK   18  A    between atoms: _41  and  _42
REMARK   19  A    between atoms: _45  and  _47
REMARK   20  A    between atoms: _47  and  _48
REMARK   21  A    between atoms: _47  and  _50
REMARK   22  A    between atoms: _50  and  _51
REMARK   23  A    between atoms: _54  and  _56
REMARK   24  A    between atoms: _56  and  _57
REMARK   25  A    between atoms: _56  and  _59
REMARK   26  A    between atoms: _59  and  _60
REMARK   27  A    between atoms: _63  and  _65
REMARK   28  A    between atoms: _65  and  _66
REMARK   29  A    between atoms: _68  and  _70
REMARK   30  A    between atoms: _70  and  _71
REMARK   31  A    between atoms: _74  and  _76
REMARK   32  A    between atoms: _76  and  _77
REMARK   33  A    between atoms: _76  and  _79
REMARK   34  A    between atoms: _79  and  _80
REMARK   35  A    between atoms: _83  and  _85
REMARK   36  A    between atoms: _85  and  _86
REMARK   37  A    between atoms: _85  and  _88
REMARK   38  A    between atoms: _88  and  _89
REMARK   39  A    between atoms: _92  and  _94
REMARK   40  A    between atoms: _94  and  _95
REMARK   41  A    between atoms: _94  and  _97
REMARK   42  A    between atoms: _97  and  _98
REMARK   43  A    between atoms: _101  and  _103
REMARK   44  A    between atoms: _103  and  _104
REMARK   45  A    between atoms: _103  and  _106
REMARK   46  A    between atoms: _109  and  _111
REMARK   47  A    between atoms: _111  and  _112
REMARK   48  A    between atoms: _111  and  _114
REMARK   49  A    between atoms: _114  and  _115
REMARK   50  A    between atoms: _115  and  _116
REMARK   51  A    between atoms: _116  and  _117
REMARK   52  A    between atoms: _117  and  _118
REMARK   53  A    between atoms: _122  and  _124
REMARK   54  A    between atoms: _124  and  _125
REMARK   55  A    between atoms: _124  and  _127
REMARK   56  A    between atoms: _127  and  _128
REMARK   57  A    between atoms: _128  and  _129
REMARK   58  A    between atoms: _131  and  _133
REMARK   59  A    between atoms: _133  and  _134
REMARK   60  A    between atoms: _133  and  _136
REMARK   61  A    between atoms: _136  and  _137
REMARK   62  A    between atoms: _140  and  _142
REMARK   63  A    between atoms: _142  and  _143
REMARK   64  A    between atoms: _145  and  _147
REMARK   65  A    between atoms: _147  and  _148
REMARK   66  A    between atoms: _150  and  _152
REMARK   67  A    between atoms: _152  and  _153
REMARK   68  A    between atoms: _152  and  _155
REMARK   69  A    between atoms: _158  and  _160
REMARK   70  A    between atoms: _160  and  _161
REMARK   71  A    between atoms: _163  and  _165
REMARK   72  A    between atoms: _165  and  _166
REMARK   73  A    between atoms: _168  and  _170
REMARK   74  A    between atoms: _170  and  _171
REMARK   75  A    between atoms: _170  and  _173
REMARK   76  A    between atoms: _173  and  _174
REMARK   77  A    between atoms: _180  and  _182
REMARK   78  A    between atoms: _182  and  _183
REMARK   79  A    between atoms: _182  and  _185
REMARK   80  A    between atoms: _185  and  _186
REMARK   81  A    between atoms: _189  and  _191
REMARK   82  A    between atoms: _191  and  _192
REMARK   83  A    between atoms: _191  and  _194
REMARK   84  A    between atoms: _197  and  _199
REMARK   85  A    between atoms: _199  and  _200
REMARK   86  A    between atoms: _199  and  _202
REMARK   87  A    between atoms: _202  and  _203
REMARK   88  A    between atoms: _206  and  _208
REMARK   89  A    between atoms: _208  and  _209
REMARK   90  A    between atoms: _208  and  _211
REMARK   91  A    between atoms: _211  and  _212
REMARK   92  A    between atoms: _216  and  _217
REMARK   93  A    between atoms: _222  and  _224
REMARK   94  A    between atoms: _224  and  _225
REMARK   95  A    between atoms: _224  and  _227
REMARK   96  A    between atoms: _230  and  _232
REMARK   97  A    between atoms: _232  and  _233
REMARK   98  A    between atoms: _232  and  _235
REMARK   99  A    between atoms: _235  and  _236
REMARK  100  A    between atoms: _241  and  _243
REMARK  101  A    between atoms: _243  and  _244
REMARK  102  A    between atoms: _243  and  _246
REMARK  103  A    between atoms: _246  and  _247
REMARK  104  A    between atoms: _250  and  _252
REMARK  105  A    between atoms: _252  and  _253
REMARK  106  A    between atoms: _252  and  _255
REMARK  107  A    between atoms: _255  and  _256
REMARK  108  A    between atoms: _259  and  _261
REMARK  109  A    between atoms: _261  and  _262
REMARK  110  A    between atoms: _264  and  _266
REMARK  111  A    between atoms: _266  and  _267
REMARK  112  A    between atoms: _266  and  _269
REMARK  113  A    between atoms: _269  and  _270
REMARK  114  A    between atoms: _270  and  _271
REMARK  115  A    between atoms: _271  and  _272
REMARK  116  A    between atoms: _281  and  _283
REMARK  117  A    between atoms: _283  and  _284
REMARK  118  A    between atoms: _283  and  _286
REMARK  119  A    between atoms: _286  and  _287
REMARK  120  A    between atoms: _292  and  _294
REMARK  121  A    between atoms: _294  and  _295
REMARK  122  A    between atoms: _294  and  _297
REMARK  123  A    between atoms: _297  and  _298
REMARK  124  A    between atoms: _298  and  _299
REMARK  125  A    between atoms: _299  and  _300
REMARK  126  A    between atoms: _302  and  _303
REMARK  127  A    between atoms: _309  and  _311
REMARK  128  A    between atoms: _311  and  _312
REMARK  129  A    between atoms: _311  and  _314
REMARK  130  A    between atoms: _314  and  _315
REMARK  131  A    between atoms: _318  and  _320
REMARK  132  A    between atoms: _320  and  _321
REMARK  133  A    between atoms: _320  and  _323
REMARK  134  A    between atoms: _323  and  _324
REMARK  135  A    between atoms: _327  and  _329
REMARK  136  A    between atoms: _329  and  _330
REMARK  137  A    between atoms: _329  and  _332
REMARK  138  A    between atoms: _332  and  _333
REMARK  139  A    between atoms: _336  and  _338
REMARK  140  A    between atoms: _338  and  _339
REMARK  141  A    between atoms: _338  and  _341
REMARK  142  A    between atoms: _341  and  _342
REMARK  143  A    between atoms: _345  and  _347
REMARK  144  A    between atoms: _347  and  _348
REMARK  145  A    between atoms: _350  and  _352
REMARK  146  A    between atoms: _352  and  _353
REMARK  147  A    between atoms: _356  and  _358
REMARK  148  A    between atoms: _358  and  _359
REMARK  149  A    between atoms: _358  and  _361
REMARK  150  A    between atoms: _361  and  _362
REMARK  151  A    between atoms: _365  and  _367
REMARK  152  A    between atoms: _367  and  _368
REMARK  153  A    between atoms: _367  and  _370
REMARK  154  A    between atoms: _370  and  _371
REMARK  155  A    between atoms: _374  and  _376
REMARK  156  A    between atoms: _376  and  _377
REMARK  157  A    between atoms: _376  and  _379
REMARK  158  A    between atoms: _379  and  _380
REMARK  159  A    between atoms: _383  and  _385
REMARK  160  A    between atoms: _385  and  _386
REMARK  161  A    between atoms: _385  and  _388
REMARK  162  A    between atoms: _391  and  _393
REMARK  163  A    between atoms: _393  and  _394
REMARK  164  A    between atoms: _393  and  _396
REMARK  165  A    between atoms: _396  and  _397
REMARK  166  A    between atoms: _397  and  _398
REMARK  167  A    between atoms: _398  and  _399
REMARK  168  A    between atoms: _399  and  _400
REMARK  169  A    between atoms: _404  and  _406
REMARK  170  A    between atoms: _406  and  _407
REMARK  171  A    between atoms: _406  and  _409
REMARK  172  A    between atoms: _409  and  _410
REMARK  173  A    between atoms: _410  and  _411
REMARK  174  A    between atoms: _413  and  _415
REMARK  175  A    between atoms: _415  and  _416
REMARK  176  A    between atoms: _415  and  _418
REMARK  177  A    between atoms: _418  and  _419
REMARK  178  A    between atoms: _422  and  _424
REMARK  179  A    between atoms: _424  and  _425
REMARK  180  A    between atoms: _427  and  _429
REMARK  181  A    between atoms: _429  and  _430
REMARK  182  A    between atoms: _432  and  _434
REMARK  183  A    between atoms: _434  and  _435
REMARK  184  A    between atoms: _434  and  _437
REMARK  185  A    between atoms: _440  and  _442
REMARK  186  A    between atoms: _442  and  _443
REMARK  187  A    between atoms: _445  and  _447
REMARK  188  A    between atoms: _447  and  _448
REMARK  189  A    between atoms: _450  and  _452
REMARK  190  A    between atoms: _452  and  _453
REMARK  191  A    between atoms: _452  and  _455
REMARK  192  A    between atoms: _455  and  _456
REMARK  193  A    between atoms: _462  and  _464
REMARK  194  A    between atoms: _464  and  _465
REMARK  195  A    between atoms: _464  and  _467
REMARK  196  A    between atoms: _467  and  _468
REMARK  197  A    between atoms: _471  and  _473
REMARK  198  A    between atoms: _473  and  _474
REMARK  199  A    between atoms: _473  and  _476
REMARK  200  A    between atoms: _479  and  _481
REMARK  201  A    between atoms: _481  and  _482
REMARK  202  A    between atoms: _481  and  _484
REMARK  203  A    between atoms: _484  and  _485
REMARK  204  A    between atoms: _489  and  _490
REMARK  205  A    between atoms: _495  and  _497
REMARK  206  A    between atoms: _497  and  _498
REMARK  207  A    between atoms: _497  and  _500
REMARK  208  A    between atoms: _500  and  _501
REMARK  209  A    between atoms: _505  and  _506
REMARK  210  A    between atoms: _511  and  _513
REMARK  211  A    between atoms: _513  and  _514
REMARK  212  A    between atoms: _513  and  _516
REMARK  213  A    between atoms: _519  and  _521
REMARK  214  A    between atoms: _521  and  _522
REMARK  215  A    between atoms: _521  and  _524
REMARK  216  A    between atoms: _524  and  _525
REMARK  217  A    between atoms: _530  and  _532
REMARK  218  A    between atoms: _532  and  _533
REMARK  219  A    between atoms: _532  and  _535
REMARK  220  A    between atoms: _535  and  _536
REMARK  221  A    between atoms: _539  and  _541
REMARK  222  A    between atoms: _541  and  _542
REMARK  223  A    between atoms: _541  and  _544
REMARK  224  A    between atoms: _544  and  _545
REMARK  225  A    between atoms: _548  and  _550
REMARK  226  A    between atoms: _550  and  _551
REMARK  227  A    between atoms: _553  and  _555
REMARK  228  A    between atoms: _555  and  _556
REMARK  229  A    between atoms: _555  and  _558
REMARK  230  A    between atoms: _558  and  _559
REMARK  231  A    between atoms: _559  and  _560
REMARK  232  A    between atoms: _560  and  _561
REMARK  233  A    between atoms: _570  and  _572
REMARK  234  A    between atoms: _572  and  _573
REMARK  235  A    between atoms: _572  and  _575
REMARK  236  A    between atoms: _575  and  _576
REMARK                            x       y       z     vdW  Elec       q    Type
REMARK                         _______ _______ _______ _____ _____    ______ ____
ROOT
ATOM      1  O   HOH     1      15.136  15.860  12.173  0.00  0.00    +0.000 OA
ENDROOT
TORSDOF 0
REMARK  Name = ../refined-set-2016/2avq/2avq_pocket.pdb
REMARK  236 active torsions:
REMARK  status: ('A' for Active; 'I' for Inactive)
REMARK    1  A    between atoms: _1  and  _3
REMARK    2  A    between atoms: _3  and  _4
REMARK    3  A    between atoms: _3  and  _6
REMARK    4  A    between atoms: _6  and  _7
REMARK    5  A    between atoms: _7  and  _8
REMARK    6  A    between atoms: _8  and  _9
REMARK    7  A    between atoms: _18  and  _20
REMARK    8  A    between atoms: _20  and  _21
REMARK    9  A    between atoms: _20  and  _23
REMARK   10  A    between atoms: _23  and  _24
REMARK   11  A    between atoms: _27  and  _29
REMARK   12  A    between atoms: _29  and  _30
REMARK   13  A    between atoms: _29  and  _32
REMARK   14  A    between atoms: _32  and  _33
REMARK   15  A    between atoms: _36  and  _38
REMARK   16  A    between atoms: _38  and  _39
REMARK   17  A    between atoms: _38  and  _41
REMARK   18  A    between atoms: _41  and  _42
REMARK   19  A    between atoms: _45  and  _47
REMARK   20  A    between atoms: _47  and  _48
REMARK   21  A    between atoms: _47  and  _50
REMARK   22  A    between atoms: _50  and  _51
REMARK   23  A    between atoms: _54  and  _56
REMARK   24  A    between atoms: _56  and  _57
REMARK   25  A    between atoms: _56  and  _59
REMARK   26  A    between atoms: _59  and  _60
REMARK   27  A    between atoms: _63  and  _65
REMARK   28  A    between atoms: _65  and  _66
REMARK   29  A    between atoms: _68  and  _70
REMARK   30  A    between atoms: _70  and  _71
REMARK   31  A    between atoms: _74  and  _76
REMARK   32  A    between atoms: _76  and  _77
REMARK   33  A    between atoms: _76  and  _79
REMARK   34  A    between atoms: _79  and  _80
REMARK   35  A    between atoms: _83  and  _85
REMARK   36  A    between atoms: _85  and  _86
REMARK   37  A    between atoms: _85  and  _88
REMARK   38  A    between atoms: _88  and  _89
REMARK   39  A    between atoms: _92  and  _94
REMARK   40  A    between atoms: _94  and  _95
REMARK   41  A    between atoms: _94  and  _97
REMARK   42  A    between atoms: _97  and  _98
REMARK   43  A    between atoms: _101  and  _103
REMARK   44  A    between atoms: _103  and  _104
REMARK   45  A    between atoms: _103  and  _106
REMARK   46  A    between atoms: _109  and  _111
REMARK   47  A    between atoms: _111  and  _112
REMARK   48  A    between atoms: _111  and  _114
REMARK   49  A    between atoms: _114  and  _115
REMARK   50  A    between atoms: _115  and  _116
REMARK   51  A    between atoms: _116  and  _117
REMARK   52  A    between atoms: _117  and  _118
REMARK   53  A    between atoms: _122  and  _124
REMARK   54  A    between atoms: _124  and  _125
REMARK   55  A    between atoms: _124  and  _127
REMARK   56  A    between atoms: _127  and  _128
REMARK   57  A    between atoms: _128  and  _129
REMARK   58  A    between atoms: _131  and  _133
REMARK   59  A    between atoms: _133  and  _134
REMARK   60  A    between atoms: _133  and  _136
REMARK   61  A    between atoms: _136  and  _137
REMARK   62  A    between atoms: _140  and  _142
REMARK   63  A    between atoms: _142  and  _143
REMARK   64  A    between atoms: _145  and  _147
REMARK   65  A    between atoms: _147  and  _148
REMARK   66  A    between atoms: _150  and  _152
REMARK   67  A    between atoms: _152  and  _153
REMARK   68  A    between atoms: _152  and  _155
REMARK   69  A    between atoms: _158  and  _160
REMARK   70  A    between atoms: _160  and  _161
REMARK   71  A    between atoms: _163  and  _165
REMARK   72  A    between atoms: _165  and  _166
REMARK   73  A    between atoms: _168  and  _170
REMARK   74  A    between atoms: _170  and  _171
REMARK   75  A    between atoms: _170  and  _173
REMARK   76  A    between atoms: _173  and  _174
REMARK   77  A    between atoms: _180  and  _182
REMARK   78  A    between atoms: _182  and  _183
REMARK   79  A    between atoms: _182  and  _185
REMARK   80  A    between atoms: _185  and  _186
REMARK   81  A    between atoms: _189  and  _191
REMARK   82  A    between atoms: _191  and  _192
REMARK   83  A    between atoms: _191  and  _194
REMARK   84  A    between atoms: _197  and  _199
REMARK   85  A    between atoms: _199  and  _200
REMARK   86  A    between atoms: _199  and  _202
REMARK   87  A    between atoms: _202  and  _203
REMARK   88  A    between atoms: _206  and  _208
REMARK   89  A    between atoms: _208  and  _209
REMARK   90  A    between atoms: _208  and  _211
REMARK   91  A    between atoms: _211  and  _212
REMARK   92  A    between atoms: _216  and  _217
REMARK   93  A    between atoms: _222  and  _224
REMARK   94  A    between atoms: _224  and  _225
REMARK   95  A    between atoms: _224  and  _227
REMARK   96  A    between atoms: _230  and  _232
REMARK   97  A    between atoms: _232  and  _233
REMARK   98  A    between atoms: _232  and  _235
REMARK   99  A    between atoms: _235  and  _236
REMARK  100  A    between atoms: _241  and  _243
REMARK  101  A    between atoms: _243  and  _244
REMARK  102  A    between atoms: _243  and  _246
REMARK  103  A    between atoms: _246  and  _247
REMARK  104  A    between atoms: _250  and  _252
REMARK  105  A    between atoms: _252  and  _253
REMARK  106  A    between atoms: _252  and  _255
REMARK  107  A    between atoms: _255  and  _256
REMARK  108  A    between atoms: _259  and  _261
REMARK  109  A    between atoms: _261  and  _262
REMARK  110  A    between atoms: _264  and  _266
REMARK  111  A    between atoms: _266  and  _267
REMARK  112  A    between atoms: _266  and  _269
REMARK  113  A    between atoms: _269  and  _270
REMARK  114  A    between atoms: _270  and  _271
REMARK  115  A    between atoms: _271  and  _272
REMARK  116  A    between atoms: _281  and  _283
REMARK  117  A    between atoms: _283  and  _284
REMARK  118  A    between atoms: _283  and  _286
REMARK  119  A    between atoms: _286  and  _287
REMARK  120  A    between atoms: _292  and  _294
REMARK  121  A    between atoms: _294  and  _295
REMARK  122  A    between atoms: _294  and  _297
REMARK  123  A    between atoms: _297  and  _298
REMARK  124  A    between atoms: _298  and  _299
REMARK  125  A    between atoms: _299  and  _300
REMARK  126  A    between atoms: _302  and  _303
REMARK  127  A    between atoms: _309  and  _311
REMARK  128  A    between atoms: _311  and  _312
REMARK  129  A    between atoms: _311  and  _314
REMARK  130  A    between atoms: _314  and  _315
REMARK  131  A    between atoms: _318  and  _320
REMARK  132  A    between atoms: _320  and  _321
REMARK  133  A    between atoms: _320  and  _323
REMARK  134  A    between atoms: _323  and  _324
REMARK  135  A    between atoms: _327  and  _329
REMARK  136  A    between atoms: _329  and  _330
REMARK  137  A    between atoms: _329  and  _332
REMARK  138  A    between atoms: _332  and  _333
REMARK  139  A    between atoms: _336  and  _338
REMARK  140  A    between atoms: _338  and  _339
REMARK  141  A    between atoms: _338  and  _341
REMARK  142  A    between atoms: _341  and  _342
REMARK  143  A    between atoms: _345  and  _347
REMARK  144  A    between atoms: _347  and  _348
REMARK  145  A    between atoms: _350  and  _352
REMARK  146  A    between atoms: _352  and  _353
REMARK  147  A    between atoms: _356  and  _358
REMARK  148  A    between atoms: _358  and  _359
REMARK  149  A    between atoms: _358  and  _361
REMARK  150  A    between atoms: _361  and  _362
REMARK  151  A    between atoms: _365  and  _367
REMARK  152  A    between atoms: _367  and  _368
REMARK  153  A    between atoms: _367  and  _370
REMARK  154  A    between atoms: _370  and  _371
REMARK  155  A    between atoms: _374  and  _376
REMARK  156  A    between atoms: _376  and  _377
REMARK  157  A    between atoms: _376  and  _379
REMARK  158  A    between atoms: _379  and  _380
REMARK  159  A    between atoms: _383  and  _385
REMARK  160  A    between atoms: _385  and  _386
REMARK  161  A    between atoms: _385  and  _388
REMARK  162  A    between atoms: _391  and  _393
REMARK  163  A    between atoms: _393  and  _394
REMARK  164  A    between atoms: _393  and  _396
REMARK  165  A    between atoms: _396  and  _397
REMARK  166  A    between atoms: _397  and  _398
REMARK  167  A    between atoms: _398  and  _399
REMARK  168  A    between atoms: _399  and  _400
REMARK  169  A    between atoms: _404  and  _406
REMARK  170  A    between atoms: _406  and  _407
REMARK  171  A    between atoms: _406  and  _409
REMARK  172  A    between atoms: _409  and  _410
REMARK  173  A    between atoms: _410  and  _411
REMARK  174  A    between atoms: _413  and  _415
REMARK  175  A    between atoms: _415  and  _416
REMARK  176  A    between atoms: _415  and  _418
REMARK  177  A    between atoms: _418  and  _419
REMARK  178  A    between atoms: _422  and  _424
REMARK  179  A    between atoms: _424  and  _425
REMARK  180  A    between atoms: _427  and  _429
REMARK  181  A    between atoms: _429  and  _430
REMARK  182  A    between atoms: _432  and  _434
REMARK  183  A    between atoms: _434  and  _435
REMARK  184  A    between atoms: _434  and  _437
REMARK  185  A    between atoms: _440  and  _442
REMARK  186  A    between atoms: _442  and  _443
REMARK  187  A    between atoms: _445  and  _447
REMARK  188  A    between atoms: _447  and  _448
REMARK  189  A    between atoms: _450  and  _452
REMARK  190  A    between atoms: _452  and  _453
REMARK  191  A    between atoms: _452  and  _455
REMARK  192  A    between atoms: _455  and  _456
REMARK  193  A    between atoms: _462  and  _464
REMARK  194  A    between atoms: _464  and  _465
REMARK  195  A    between atoms: _464  and  _467
REMARK  196  A    between atoms: _467  and  _468
REMARK  197  A    between atoms: _471  and  _473
REMARK  198  A    between atoms: _473  and  _474
REMARK  199  A    between atoms: _473  and  _476
REMARK  200  A    between atoms: _479  and  _481
REMARK  201  A    between atoms: _481  and  _482
REMARK  202  A    between atoms: _481  and  _484
REMARK  203  A    between atoms: _484  and  _485
REMARK  204  A    between atoms: _489  and  _490
REMARK  205  A    between atoms: _495  and  _497
REMARK  206  A    between atoms: _497  and  _498
REMARK  207  A    between atoms: _497  and  _500
REMARK  208  A    between atoms: _500  and  _501
REMARK  209  A    between atoms: _505  and  _506
REMARK  210  A    between atoms: _511  and  _513
REMARK  211  A    between atoms: _513  and  _514
REMARK  212  A    between atoms: _513  and  _516
REMARK  213  A    between atoms: _519  and  _521
REMARK  214  A    between atoms: _521  and  _522
REMARK  215  A    between atoms: _521  and  _524
REMARK  216  A    between atoms: _524  and  _525
REMARK  217  A    between atoms: _530  and  _532
REMARK  218  A    between atoms: _532  and  _533
REMARK  219  A    between atoms: _532  and  _535
REMARK  220  A    between atoms: _535  and  _536
REMARK  221  A    between atoms: _539  and  _541
REMARK  222  A    between atoms: _541  and  _542
REMARK  223  A    between atoms: _541  and  _544
REMARK  224  A    between atoms: _544  and  _545
REMARK  225  A    between atoms: _548  and  _550
REMARK  226  A    between atoms: _550  and  _551
REMARK  227  A    between atoms: _553  and  _555
REMARK  228  A    between atoms: _555  and  _556
REMARK  229  A    between atoms: _555  and  _558
REMARK  230  A    between atoms: _558  and  _559
REMARK  231  A    between atoms: _559  and  _560
REMARK  232  A    between atoms: _560  and  _561
REMARK  233  A    between atoms: _570  and  _572
REMARK  234  A    between atoms: _572  and  _573
REMARK  235  A    between atoms: _572  and  _575
REMARK  236  A    between atoms: _575  and  _576
REMARK                            x       y       z     vdW  Elec       q    Type
REMARK                         _______ _______ _______ _____ _____    ______ ____
ROOT
ATOM      1  O   HOH     1       9.256   7.874  19.218  0.00  0.00    +0.000 OA
ENDROOT
TORSDOF 0
REMARK  Name = ../refined-set-2016/2avq/2avq_pocket.pdb
REMARK  236 active torsions:
REMARK  status: ('A' for Active; 'I' for Inactive)
REMARK    1  A    between atoms: _1  and  _3
REMARK    2  A    between atoms: _3  and  _4
REMARK    3  A    between atoms: _3  and  _6
REMARK    4  A    between atoms: _6  and  _7
REMARK    5  A    between atoms: _7  and  _8
REMARK    6  A    between atoms: _8  and  _9
REMARK    7  A    between atoms: _18  and  _20
REMARK    8  A    between atoms: _20  and  _21
REMARK    9  A    between atoms: _20  and  _23
REMARK   10  A    between atoms: _23  and  _24
REMARK   11  A    between atoms: _27  and  _29
REMARK   12  A    between atoms: _29  and  _30
REMARK   13  A    between atoms: _29  and  _32
REMARK   14  A    between atoms: _32  and  _33
REMARK   15  A    between atoms: _36  and  _38
REMARK   16  A    between atoms: _38  and  _39
REMARK   17  A    between atoms: _38  and  _41
REMARK   18  A    between atoms: _41  and  _42
REMARK   19  A    between atoms: _45  and  _47
REMARK   20  A    between atoms: _47  and  _48
REMARK   21  A    between atoms: _47  and  _50
REMARK   22  A    between atoms: _50  and  _51
REMARK   23  A    between atoms: _54  and  _56
REMARK   24  A    between atoms: _56  and  _57
REMARK   25  A    between atoms: _56  and  _59
REMARK   26  A    between atoms: _59  and  _60
REMARK   27  A    between atoms: _63  and  _65
REMARK   28  A    between atoms: _65  and  _66
REMARK   29  A    between atoms: _68  and  _70
REMARK   30  A    between atoms: _70  and  _71
REMARK   31  A    between atoms: _74  and  _76
REMARK   32  A    between atoms: _76  and  _77
REMARK   33  A    between atoms: _76  and  _79
REMARK   34  A    between atoms: _79  and  _80
REMARK   35  A    between atoms: _83  and  _85
REMARK   36  A    between atoms: _85  and  _86
REMARK   37  A    between atoms: _85  and  _88
REMARK   38  A    between atoms: _88  and  _89
REMARK   39  A    between atoms: _92  and  _94
REMARK   40  A    between atoms: _94  and  _95
REMARK   41  A    between atoms: _94  and  _97
REMARK   42  A    between atoms: _97  and  _98
REMARK   43  A    between atoms: _101  and  _103
REMARK   44  A    between atoms: _103  and  _104
REMARK   45  A    between atoms: _103  and  _106
REMARK   46  A    between atoms: _109  and  _111
REMARK   47  A    between atoms: _111  and  _112
REMARK   48  A    between atoms: _111  and  _114
REMARK   49  A    between atoms: _114  and  _115
REMARK   50  A    between atoms: _115  and  _116
REMARK   51  A    between atoms: _116  and  _117
REMARK   52  A    between atoms: _117  and  _118
REMARK   53  A    between atoms: _122  and  _124
REMARK   54  A    between atoms: _124  and  _125
REMARK   55  A    between atoms: _124  and  _127
REMARK   56  A    between atoms: _127  and  _128
REMARK   57  A    between atoms: _128  and  _129
REMARK   58  A    between atoms: _131  and  _133
REMARK   59  A    between atoms: _133  and  _134
REMARK   60  A    between atoms: _133  and  _136
REMARK   61  A    between atoms: _136  and  _137
REMARK   62  A    between atoms: _140  and  _142
REMARK   63  A    between atoms: _142  and  _143
REMARK   64  A    between atoms: _145  and  _147
REMARK   65  A    between atoms: _147  and  _148
REMARK   66  A    between atoms: _150  and  _152
REMARK   67  A    between atoms: _152  and  _153
REMARK   68  A    between atoms: _152  and  _155
REMARK   69  A    between atoms: _158  and  _160
REMARK   70  A    between atoms: _160  and  _161
REMARK   71  A    between atoms: _163  and  _165
REMARK   72  A    between atoms: _165  and  _166
REMARK   73  A    between atoms: _168  and  _170
REMARK   74  A    between atoms: _170  and  _171
REMARK   75  A    between atoms: _170  and  _173
REMARK   76  A    between atoms: _173  and  _174
REMARK   77  A    between atoms: _180  and  _182
REMARK   78  A    between atoms: _182  and  _183
REMARK   79  A    between atoms: _182  and  _185
REMARK   80  A    between atoms: _185  and  _186
REMARK   81  A    between atoms: _189  and  _191
REMARK   82  A    between atoms: _191  and  _192
REMARK   83  A    between atoms: _191  and  _194
REMARK   84  A    between atoms: _197  and  _199
REMARK   85  A    between atoms: _199  and  _200
REMARK   86  A    between atoms: _199  and  _202
REMARK   87  A    between atoms: _202  and  _203
REMARK   88  A    between atoms: _206  and  _208
REMARK   89  A    between atoms: _208  and  _209
REMARK   90  A    between atoms: _208  and  _211
REMARK   91  A    between atoms: _211  and  _212
REMARK   92  A    between atoms: _216  and  _217
REMARK   93  A    between atoms: _222  and  _224
REMARK   94  A    between atoms: _224  and  _225
REMARK   95  A    between atoms: _224  and  _227
REMARK   96  A    between atoms: _230  and  _232
REMARK   97  A    between atoms: _232  and  _233
REMARK   98  A    between atoms: _232  and  _235
REMARK   99  A    between atoms: _235  and  _236
REMARK  100  A    between atoms: _241  and  _243
REMARK  101  A    between atoms: _243  and  _244
REMARK  102  A    between atoms: _243  and  _246
REMARK  103  A    between atoms: _246  and  _247
REMARK  104  A    between atoms: _250  and  _252
REMARK  105  A    between atoms: _252  and  _253
REMARK  106  A    between atoms: _252  and  _255
REMARK  107  A    between atoms: _255  and  _256
REMARK  108  A    between atoms: _259  and  _261
REMARK  109  A    between atoms: _261  and  _262
REMARK  110  A    between atoms: _264  and  _266
REMARK  111  A    between atoms: _266  and  _267
REMARK  112  A    between atoms: _266  and  _269
REMARK  113  A    between atoms: _269  and  _270
REMARK  114  A    between atoms: _270  and  _271
REMARK  115  A    between atoms: _271  and  _272
REMARK  116  A    between atoms: _281  and  _283
REMARK  117  A    between atoms: _283  and  _284
REMARK  118  A    between atoms: _283  and  _286
REMARK  119  A    between atoms: _286  and  _287
REMARK  120  A    between atoms: _292  and  _294
REMARK  121  A    between atoms: _294  and  _295
REMARK  122  A    between atoms: _294  and  _297
REMARK  123  A    between atoms: _297  and  _298
REMARK  124  A    between atoms: _298  and  _299
REMARK  125  A    between atoms: _299  and  _300
REMARK  126  A    between atoms: _302  and  _303
REMARK  127  A    between atoms: _309  and  _311
REMARK  128  A    between atoms: _311  and  _312
REMARK  129  A    between atoms: _311  and  _314
REMARK  130  A    between atoms: _314  and  _315
REMARK  131  A    between atoms: _318  and  _320
REMARK  132  A    between atoms: _320  and  _321
REMARK  133  A    between atoms: _320  and  _323
REMARK  134  A    between atoms: _323  and  _324
REMARK  135  A    between atoms: _327  and  _329
REMARK  136  A    between atoms: _329  and  _330
REMARK  137  A    between atoms: _329  and  _332
REMARK  138  A    between atoms: _332  and  _333
REMARK  139  A    between atoms: _336  and  _338
REMARK  140  A    between atoms: _338  and  _339
REMARK  141  A    between atoms: _338  and  _341
REMARK  142  A    between atoms: _341  and  _342
REMARK  143  A    between atoms: _345  and  _347
REMARK  144  A    between atoms: _347  and  _348
REMARK  145  A    between atoms: _350  and  _352
REMARK  146  A    between atoms: _352  and  _353
REMARK  147  A    between atoms: _356  and  _358
REMARK  148  A    between atoms: _358  and  _359
REMARK  149  A    between atoms: _358  and  _361
REMARK  150  A    between atoms: _361  and  _362
REMARK  151  A    between atoms: _365  and  _367
REMARK  152  A    between atoms: _367  and  _368
REMARK  153  A    between atoms: _367  and  _370
REMARK  154  A    between atoms: _370  and  _371
REMARK  155  A    between atoms: _374  and  _376
REMARK  156  A    between atoms: _376  and  _377
REMARK  157  A    between atoms: _376  and  _379
REMARK  158  A    between atoms: _379  and  _380
REMARK  159  A    between atoms: _383  and  _385
REMARK  160  A    between atoms: _385  and  _386
REMARK  161  A    between atoms: _385  and  _388
REMARK  162  A    between atoms: _391  and  _393
REMARK  163  A    between atoms: _393  and  _394
REMARK  164  A    between atoms: _393  and  _396
REMARK  165  A    between atoms: _396  and  _397
REMARK  166  A    between atoms: _397  and  _398
REMARK  167  A    between atoms: _398  and  _399
REMARK  168  A    between atoms: _399  and  _400
REMARK  169  A    between atoms: _404  and  _406
REMARK  170  A    between atoms: _406  and  _407
REMARK  171  A    between atoms: _406  and  _409
REMARK  172  A    between atoms: _409  and  _410
REMARK  173  A    between atoms: _410  and  _411
REMARK  174  A    between atoms: _413  and  _415
REMARK  175  A    between atoms: _415  and  _416
REMARK  176  A    between atoms: _415  and  _418
REMARK  177  A    between atoms: _418  and  _419
REMARK  178  A    between atoms: _422  and  _424
REMARK  179  A    between atoms: _424  and  _425
REMARK  180  A    between atoms: _427  and  _429
REMARK  181  A    between atoms: _429  and  _430
REMARK  182  A    between atoms: _432  and  _434
REMARK  183  A    between atoms: _434  and  _435
REMARK  184  A    between atoms: _434  and  _437
REMARK  185  A    between atoms: _440  and  _442
REMARK  186  A    between atoms: _442  and  _443
REMARK  187  A    between atoms: _445  and  _447
REMARK  188  A    between atoms: _447  and  _448
REMARK  189  A    between atoms: _450  and  _452
REMARK  190  A    between atoms: _452  and  _453
REMARK  191  A    between atoms: _452  and  _455
REMARK  192  A    between atoms: _455  and  _456
REMARK  193  A    between atoms: _462  and  _464
REMARK  194  A    between atoms: _464  and  _465
REMARK  195  A    between atoms: _464  and  _467
REMARK  196  A    between atoms: _467  and  _468
REMARK  197  A    between atoms: _471  and  _473
REMARK  198  A    between atoms: _473  and  _474
REMARK  199  A    between atoms: _473  and  _476
REMARK  200  A    between atoms: _479  and  _481
REMARK  201  A    between atoms: _481  and  _482
REMARK  202  A    between atoms: _481  and  _484
REMARK  203  A    between atoms: _484  and  _485
REMARK  204  A    between atoms: _489  and  _490
REMARK  205  A    between atoms: _495  and  _497
REMARK  206  A    between atoms: _497  and  _498
REMARK  207  A    between atoms: _497  and  _500
REMARK  208  A    between atoms: _500  and  _501
REMARK  209  A    between atoms: _505  and  _506
REMARK  210  A    between atoms: _511  and  _513
REMARK  211  A    between atoms: _513  and  _514
REMARK  212  A    between atoms: _513  and  _516
REMARK  213  A    between atoms: _519  and  _521
REMARK  214  A    between atoms: _521  and  _522
REMARK  215  A    between atoms: _521  and  _524
REMARK  216  A    between atoms: _524  and  _525
REMARK  217  A    between atoms: _530  and  _532
REMARK  218  A    between atoms: _532  and  _533
REMARK  219  A    between atoms: _532  and  _535
REMARK  220  A    between atoms: _535  and  _536
REMARK  221  A    between atoms: _539  and  _541
REMARK  222  A    between atoms: _541  and  _542
REMARK  223  A    between atoms: _541  and  _544
REMARK  224  A    between atoms: _544  and  _545
REMARK  225  A    between atoms: _548  and  _550
REMARK  226  A    between atoms: _550  and  _551
REMARK  227  A    between atoms: _553  and  _555
REMARK  228  A    between atoms: _555  and  _556
REMARK  229  A    between atoms: _555  and  _558
REMARK  230  A    between atoms: _558  and  _559
REMARK  231  A    between atoms: _559  and  _560
REMARK  232  A    between atoms: _560  and  _561
REMARK  233  A    between atoms: _570  and  _572
REMARK  234  A    between atoms: _572  and  _573
REMARK  235  A    between atoms: _572  and  _575
REMARK  236  A    between atoms: _575  and  _576
REMARK                            x       y       z     vdW  Elec       q    Type
REMARK                         _______ _______ _______ _____ _____    ______ ____
ROOT
ATOM      1  O   HOH     1      25.762  25.123  16.280  0.00  0.00    +0.000 OA
ENDROOT
TORSDOF 0
REMARK  Name = ../refined-set-2016/2avq/2avq_pocket.pdb
REMARK  236 active torsions:
REMARK  status: ('A' for Active; 'I' for Inactive)
REMARK    1  A    between atoms: _1  and  _3
REMARK    2  A    between atoms: _3  and  _4
REMARK    3  A    between atoms: _3  and  _6
REMARK    4  A    between atoms: _6  and  _7
REMARK    5  A    between atoms: _7  and  _8
REMARK    6  A    between atoms: _8  and  _9
REMARK    7  A    between atoms: _18  and  _20
REMARK    8  A    between atoms: _20  and  _21
REMARK    9  A    between atoms: _20  and  _23
REMARK   10  A    between atoms: _23  and  _24
REMARK   11  A    between atoms: _27  and  _29
REMARK   12  A    between atoms: _29  and  _30
REMARK   13  A    between atoms: _29  and  _32
REMARK   14  A    between atoms: _32  and  _33
REMARK   15  A    between atoms: _36  and  _38
REMARK   16  A    between atoms: _38  and  _39
REMARK   17  A    between atoms: _38  and  _41
REMARK   18  A    between atoms: _41  and  _42
REMARK   19  A    between atoms: _45  and  _47
REMARK   20  A    between atoms: _47  and  _48
REMARK   21  A    between atoms: _47  and  _50
REMARK   22  A    between atoms: _50  and  _51
REMARK   23  A    between atoms: _54  and  _56
REMARK   24  A    between atoms: _56  and  _57
REMARK   25  A    between atoms: _56  and  _59
REMARK   26  A    between atoms: _59  and  _60
REMARK   27  A    between atoms: _63  and  _65
REMARK   28  A    between atoms: _65  and  _66
REMARK   29  A    between atoms: _68  and  _70
REMARK   30  A    between atoms: _70  and  _71
REMARK   31  A    between atoms: _74  and  _76
REMARK   32  A    between atoms: _76  and  _77
REMARK   33  A    between atoms: _76  and  _79
REMARK   34  A    between atoms: _79  and  _80
REMARK   35  A    between atoms: _83  and  _85
REMARK   36  A    between atoms: _85  and  _86
REMARK   37  A    between atoms: _85  and  _88
REMARK   38  A    between atoms: _88  and  _89
REMARK   39  A    between atoms: _92  and  _94
REMARK   40  A    between atoms: _94  and  _95
REMARK   41  A    between atoms: _94  and  _97
REMARK   42  A    between atoms: _97  and  _98
REMARK   43  A    between atoms: _101  and  _103
REMARK   44  A    between atoms: _103  and  _104
REMARK   45  A    between atoms: _103  and  _106
REMARK   46  A    between atoms: _109  and  _111
REMARK   47  A    between atoms: _111  and  _112
REMARK   48  A    between atoms: _111  and  _114
REMARK   49  A    between atoms: _114  and  _115
REMARK   50  A    between atoms: _115  and  _116
REMARK   51  A    between atoms: _116  and  _117
REMARK   52  A    between atoms: _117  and  _118
REMARK   53  A    between atoms: _122  and  _124
REMARK   54  A    between atoms: _124  and  _125
REMARK   55  A    between atoms: _124  and  _127
REMARK   56  A    between atoms: _127  and  _128
REMARK   57  A    between atoms: _128  and  _129
REMARK   58  A    between atoms: _131  and  _133
REMARK   59  A    between atoms: _133  and  _134
REMARK   60  A    between atoms: _133  and  _136
REMARK   61  A    between atoms: _136  and  _137
REMARK   62  A    between atoms: _140  and  _142
REMARK   63  A    between atoms: _142  and  _143
REMARK   64  A    between atoms: _145  and  _147
REMARK   65  A    between atoms: _147  and  _148
REMARK   66  A    between atoms: _150  and  _152
REMARK   67  A    between atoms: _152  and  _153
REMARK   68  A    between atoms: _152  and  _155
REMARK   69  A    between atoms: _158  and  _160
REMARK   70  A    between atoms: _160  and  _161
REMARK   71  A    between atoms: _163  and  _165
REMARK   72  A    between atoms: _165  and  _166
REMARK   73  A    between atoms: _168  and  _170
REMARK   74  A    between atoms: _170  and  _171
REMARK   75  A    between atoms: _170  and  _173
REMARK   76  A    between atoms: _173  and  _174
REMARK   77  A    between atoms: _180  and  _182
REMARK   78  A    between atoms: _182  and  _183
REMARK   79  A    between atoms: _182  and  _185
REMARK   80  A    between atoms: _185  and  _186
REMARK   81  A    between atoms: _189  and  _191
REMARK   82  A    between atoms: _191  and  _192
REMARK   83  A    between atoms: _191  and  _194
REMARK   84  A    between atoms: _197  and  _199
REMARK   85  A    between atoms: _199  and  _200
REMARK   86  A    between atoms: _199  and  _202
REMARK   87  A    between atoms: _202  and  _203
REMARK   88  A    between atoms: _206  and  _208
REMARK   89  A    between atoms: _208  and  _209
REMARK   90  A    between atoms: _208  and  _211
REMARK   91  A    between atoms: _211  and  _212
REMARK   92  A    between atoms: _216  and  _217
REMARK   93  A    between atoms: _222  and  _224
REMARK   94  A    between atoms: _224  and  _225
REMARK   95  A    between atoms: _224  and  _227
REMARK   96  A    between atoms: _230  and  _232
REMARK   97  A    between atoms: _232  and  _233
REMARK   98  A    between atoms: _232  and  _235
REMARK   99  A    between atoms: _235  and  _236
REMARK  100  A    between atoms: _241  and  _243
REMARK  101  A    between atoms: _243  and  _244
REMARK  102  A    between atoms: _243  and  _246
REMARK  103  A    between atoms: _246  and  _247
REMARK  104  A    between atoms: _250  and  _252
REMARK  105  A    between atoms: _252  and  _253
REMARK  106  A    between atoms: _252  and  _255
REMARK  107  A    between atoms: _255  and  _256
REMARK  108  A    between atoms: _259  and  _261
REMARK  109  A    between atoms: _261  and  _262
REMARK  110  A    between atoms: _264  and  _266
REMARK  111  A    between atoms: _266  and  _267
REMARK  112  A    between atoms: _266  and  _269
REMARK  113  A    between atoms: _269  and  _270
REMARK  114  A    between atoms: _270  and  _271
REMARK  115  A    between atoms: _271  and  _272
REMARK  116  A    between atoms: _281  and  _283
REMARK  117  A    between atoms: _283  and  _284
REMARK  118  A    between atoms: _283  and  _286
REMARK  119  A    between atoms: _286  and  _287
REMARK  120  A    between atoms: _292  and  _294
REMARK  121  A    between atoms: _294  and  _295
REMARK  122  A    between atoms: _294  and  _297
REMARK  123  A    between atoms: _297  and  _298
REMARK  124  A    between atoms: _298  and  _299
REMARK  125  A    between atoms: _299  and  _300
REMARK  126  A    between atoms: _302  and  _303
REMARK  127  A    between atoms: _309  and  _311
REMARK  128  A    between atoms: _311  and  _312
REMARK  129  A    between atoms: _311  and  _314
REMARK  130  A    between atoms: _314  and  _315
REMARK  131  A    between atoms: _318  and  _320
REMARK  132  A    between atoms: _320  and  _321
REMARK  133  A    between atoms: _320  and  _323
REMARK  134  A    between atoms: _323  and  _324
REMARK  135  A    between atoms: _327  and  _329
REMARK  136  A    between atoms: _329  and  _330
REMARK  137  A    between atoms: _329  and  _332
REMARK  138  A    between atoms: _332  and  _333
REMARK  139  A    between atoms: _336  and  _338
REMARK  140  A    between atoms: _338  and  _339
REMARK  141  A    between atoms: _338  and  _341
REMARK  142  A    between atoms: _341  and  _342
REMARK  143  A    between atoms: _345  and  _347
REMARK  144  A    between atoms: _347  and  _348
REMARK  145  A    between atoms: _350  and  _352
REMARK  146  A    between atoms: _352  and  _353
REMARK  147  A    between atoms: _356  and  _358
REMARK  148  A    between atoms: _358  and  _359
REMARK  149  A    between atoms: _358  and  _361
REMARK  150  A    between atoms: _361  and  _362
REMARK  151  A    between atoms: _365  and  _367
REMARK  152  A    between atoms: _367  and  _368
REMARK  153  A    between atoms: _367  and  _370
REMARK  154  A    between atoms: _370  and  _371
REMARK  155  A    between atoms: _374  and  _376
REMARK  156  A    between atoms: _376  and  _377
REMARK  157  A    between atoms: _376  and  _379
REMARK  158  A    between atoms: _379  and  _380
REMARK  159  A    between atoms: _383  and  _385
REMARK  160  A    between atoms: _385  and  _386
REMARK  161  A    between atoms: _385  and  _388
REMARK  162  A    between atoms: _391  and  _393
REMARK  163  A    between atoms: _393  and  _394
REMARK  164  A    between atoms: _393  and  _396
REMARK  165  A    between atoms: _396  and  _397
REMARK  166  A    between atoms: _397  and  _398
REMARK  167  A    between atoms: _398  and  _399
REMARK  168  A    between atoms: _399  and  _400
REMARK  169  A    between atoms: _404  and  _406
REMARK  170  A    between atoms: _406  and  _407
REMARK  171  A    between atoms: _406  and  _409
REMARK  172  A    between atoms: _409  and  _410
REMARK  173  A    between atoms: _410  and  _411
REMARK  174  A    between atoms: _413  and  _415
REMARK  175  A    between atoms: _415  and  _416
REMARK  176  A    between atoms: _415  and  _418
REMARK  177  A    between atoms: _418  and  _419
REMARK  178  A    between atoms: _422  and  _424
REMARK  179  A    between atoms: _424  and  _425
REMARK  180  A    between atoms: _427  and  _429
REMARK  181  A    between atoms: _429  and  _430
REMARK  182  A    between atoms: _432  and  _434
REMARK  183  A    between atoms: _434  and  _435
REMARK  184  A    between atoms: _434  and  _437
REMARK  185  A    between atoms: _440  and  _442
REMARK  186  A    between atoms: _442  and  _443
REMARK  187  A    between atoms: _445  and  _447
REMARK  188  A    between atoms: _447  and  _448
REMARK  189  A    between atoms: _450  and  _452
REMARK  190  A    between atoms: _452  and  _453
REMARK  191  A    between atoms: _452  and  _455
REMARK  192  A    between atoms: _455  and  _456
REMARK  193  A    between atoms: _462  and  _464
REMARK  194  A    between atoms: _464  and  _465
REMARK  195  A    between atoms: _464  and  _467
REMARK  196  A    between atoms: _467  and  _468
REMARK  197  A    between atoms: _471  and  _473
REMARK  198  A    between atoms: _473  and  _474
REMARK  199  A    between atoms: _473  and  _476
REMARK  200  A    between atoms: _479  and  _481
REMARK  201  A    between atoms: _481  and  _482
REMARK  202  A    between atoms: _481  and  _484
REMARK  203  A    between atoms: _484  and  _485
REMARK  204  A    between atoms: _489  and  _490
REMARK  205  A    between atoms: _495  and  _497
REMARK  206  A    between atoms: _497  and  _498
REMARK  207  A    between atoms: _497  and  _500
REMARK  208  A    between atoms: _500  and  _501
REMARK  209  A    between atoms: _505  and  _506
REMARK  210  A    between atoms: _511  and  _513
REMARK  211  A    between atoms: _513  and  _514
REMARK  212  A    between atoms: _513  and  _516
REMARK  213  A    between atoms: _519  and  _521
REMARK  214  A    between atoms: _521  and  _522
REMARK  215  A    between atoms: _521  and  _524
REMARK  216  A    between atoms: _524  and  _525
REMARK  217  A    between atoms: _530  and  _532
REMARK  218  A    between atoms: _532  and  _533
REMARK  219  A    between atoms: _532  and  _535
REMARK  220  A    between atoms: _535  and  _536
REMARK  221  A    between atoms: _539  and  _541
REMARK  222  A    between atoms: _541  and  _542
REMARK  223  A    between atoms: _541  and  _544
REMARK  224  A    between atoms: _544  and  _545
REMARK  225  A    between atoms: _548  and  _550
REMARK  226  A    between atoms: _550  and  _551
REMARK  227  A    between atoms: _553  and  _555
REMARK  228  A    between atoms: _555  and  _556
REMARK  229  A    between atoms: _555  and  _558
REMARK  230  A    between atoms: _558  and  _559
REMARK  231  A    between atoms: _559  and  _560
REMARK  232  A    between atoms: _560  and  _561
REMARK  233  A    between atoms: _570  and  _572
REMARK  234  A    between atoms: _572  and  _573
REMARK  235  A    between atoms: _572  and  _575
REMARK  236  A    between atoms: _575  and  _576
REMARK                            x       y       z     vdW  Elec       q    Type
REMARK                         _______ _______ _______ _____ _____    ______ ____
ROOT
ATOM      1  O   HOH     1      19.107  17.006   9.146  0.00  0.00    +0.000 OA
ENDROOT
TORSDOF 0
REMARK  Name = ../refined-set-2016/2avq/2avq_pocket.pdb
REMARK  236 active torsions:
REMARK  status: ('A' for Active; 'I' for Inactive)
REMARK    1  A    between atoms: _1  and  _3
REMARK    2  A    between atoms: _3  and  _4
REMARK    3  A    between atoms: _3  and  _6
REMARK    4  A    between atoms: _6  and  _7
REMARK    5  A    between atoms: _7  and  _8
REMARK    6  A    between atoms: _8  and  _9
REMARK    7  A    between atoms: _18  and  _20
REMARK    8  A    between atoms: _20  and  _21
REMARK    9  A    between atoms: _20  and  _23
REMARK   10  A    between atoms: _23  and  _24
REMARK   11  A    between atoms: _27  and  _29
REMARK   12  A    between atoms: _29  and  _30
REMARK   13  A    between atoms: _29  and  _32
REMARK   14  A    between atoms: _32  and  _33
REMARK   15  A    between atoms: _36  and  _38
REMARK   16  A    between atoms: _38  and  _39
REMARK   17  A    between atoms: _38  and  _41
REMARK   18  A    between atoms: _41  and  _42
REMARK   19  A    between atoms: _45  and  _47
REMARK   20  A    between atoms: _47  and  _48
REMARK   21  A    between atoms: _47  and  _50
REMARK   22  A    between atoms: _50  and  _51
REMARK   23  A    between atoms: _54  and  _56
REMARK   24  A    between atoms: _56  and  _57
REMARK   25  A    between atoms: _56  and  _59
REMARK   26  A    between atoms: _59  and  _60
REMARK   27  A    between atoms: _63  and  _65
REMARK   28  A    between atoms: _65  and  _66
REMARK   29  A    between atoms: _68  and  _70
REMARK   30  A    between atoms: _70  and  _71
REMARK   31  A    between atoms: _74  and  _76
REMARK   32  A    between atoms: _76  and  _77
REMARK   33  A    between atoms: _76  and  _79
REMARK   34  A    between atoms: _79  and  _80
REMARK   35  A    between atoms: _83  and  _85
REMARK   36  A    between atoms: _85  and  _86
REMARK   37  A    between atoms: _85  and  _88
REMARK   38  A    between atoms: _88  and  _89
REMARK   39  A    between atoms: _92  and  _94
REMARK   40  A    between atoms: _94  and  _95
REMARK   41  A    between atoms: _94  and  _97
REMARK   42  A    between atoms: _97  and  _98
REMARK   43  A    between atoms: _101  and  _103
REMARK   44  A    between atoms: _103  and  _104
REMARK   45  A    between atoms: _103  and  _106
REMARK   46  A    between atoms: _109  and  _111
REMARK   47  A    between atoms: _111  and  _112
REMARK   48  A    between atoms: _111  and  _114
REMARK   49  A    between atoms: _114  and  _115
REMARK   50  A    between atoms: _115  and  _116
REMARK   51  A    between atoms: _116  and  _117
REMARK   52  A    between atoms: _117  and  _118
REMARK   53  A    between atoms: _122  and  _124
REMARK   54  A    between atoms: _124  and  _125
REMARK   55  A    between atoms: _124  and  _127
REMARK   56  A    between atoms: _127  and  _128
REMARK   57  A    between atoms: _128  and  _129
REMARK   58  A    between atoms: _131  and  _133
REMARK   59  A    between atoms: _133  and  _134
REMARK   60  A    between atoms: _133  and  _136
REMARK   61  A    between atoms: _136  and  _137
REMARK   62  A    between atoms: _140  and  _142
REMARK   63  A    between atoms: _142  and  _143
REMARK   64  A    between atoms: _145  and  _147
REMARK   65  A    between atoms: _147  and  _148
REMARK   66  A    between atoms: _150  and  _152
REMARK   67  A    between atoms: _152  and  _153
REMARK   68  A    between atoms: _152  and  _155
REMARK   69  A    between atoms: _158  and  _160
REMARK   70  A    between atoms: _160  and  _161
REMARK   71  A    between atoms: _163  and  _165
REMARK   72  A    between atoms: _165  and  _166
REMARK   73  A    between atoms: _168  and  _170
REMARK   74  A    between atoms: _170  and  _171
REMARK   75  A    between atoms: _170  and  _173
REMARK   76  A    between atoms: _173  and  _174
REMARK   77  A    between atoms: _180  and  _182
REMARK   78  A    between atoms: _182  and  _183
REMARK   79  A    between atoms: _182  and  _185
REMARK   80  A    between atoms: _185  and  _186
REMARK   81  A    between atoms: _189  and  _191
REMARK   82  A    between atoms: _191  and  _192
REMARK   83  A    between atoms: _191  and  _194
REMARK   84  A    between atoms: _197  and  _199
REMARK   85  A    between atoms: _199  and  _200
REMARK   86  A    between atoms: _199  and  _202
REMARK   87  A    between atoms: _202  and  _203
REMARK   88  A    between atoms: _206  and  _208
REMARK   89  A    between atoms: _208  and  _209
REMARK   90  A    between atoms: _208  and  _211
REMARK   91  A    between atoms: _211  and  _212
REMARK   92  A    between atoms: _216  and  _217
REMARK   93  A    between atoms: _222  and  _224
REMARK   94  A    between atoms: _224  and  _225
REMARK   95  A    between atoms: _224  and  _227
REMARK   96  A    between atoms: _230  and  _232
REMARK   97  A    between atoms: _232  and  _233
REMARK   98  A    between atoms: _232  and  _235
REMARK   99  A    between atoms: _235  and  _236
REMARK  100  A    between atoms: _241  and  _243
REMARK  101  A    between atoms: _243  and  _244
REMARK  102  A    between atoms: _243  and  _246
REMARK  103  A    between atoms: _246  and  _247
REMARK  104  A    between atoms: _250  and  _252
REMARK  105  A    between atoms: _252  and  _253
REMARK  106  A    between atoms: _252  and  _255
REMARK  107  A    between atoms: _255  and  _256
REMARK  108  A    between atoms: _259  and  _261
REMARK  109  A    between atoms: _261  and  _262
REMARK  110  A    between atoms: _264  and  _266
REMARK  111  A    between atoms: _266  and  _267
REMARK  112  A    between atoms: _266  and  _269
REMARK  113  A    between atoms: _269  and  _270
REMARK  114  A    between atoms: _270  and  _271
REMARK  115  A    between atoms: _271  and  _272
REMARK  116  A    between atoms: _281  and  _283
REMARK  117  A    between atoms: _283  and  _284
REMARK  118  A    between atoms: _283  and  _286
REMARK  119  A    between atoms: _286  and  _287
REMARK  120  A    between atoms: _292  and  _294
REMARK  121  A    between atoms: _294  and  _295
REMARK  122  A    between atoms: _294  and  _297
REMARK  123  A    between atoms: _297  and  _298
REMARK  124  A    between atoms: _298  and  _299
REMARK  125  A    between atoms: _299  and  _300
REMARK  126  A    between atoms: _302  and  _303
REMARK  127  A    between atoms: _309  and  _311
REMARK  128  A    between atoms: _311  and  _312
REMARK  129  A    between atoms: _311  and  _314
REMARK  130  A    between atoms: _314  and  _315
REMARK  131  A    between atoms: _318  and  _320
REMARK  132  A    between atoms: _320  and  _321
REMARK  133  A    between atoms: _320  and  _323
REMARK  134  A    between atoms: _323  and  _324
REMARK  135  A    between atoms: _327  and  _329
REMARK  136  A    between atoms: _329  and  _330
REMARK  137  A    between atoms: _329  and  _332
REMARK  138  A    between atoms: _332  and  _333
REMARK  139  A    between atoms: _336  and  _338
REMARK  140  A    between atoms: _338  and  _339
REMARK  141  A    between atoms: _338  and  _341
REMARK  142  A    between atoms: _341  and  _342
REMARK  143  A    between atoms: _345  and  _347
REMARK  144  A    between atoms: _347  and  _348
REMARK  145  A    between atoms: _350  and  _352
REMARK  146  A    between atoms: _352  and  _353
REMARK  147  A    between atoms: _356  and  _358
REMARK  148  A    between atoms: _358  and  _359
REMARK  149  A    between atoms: _358  and  _361
REMARK  150  A    between atoms: _361  and  _362
REMARK  151  A    between atoms: _365  and  _367
REMARK  152  A    between atoms: _367  and  _368
REMARK  153  A    between atoms: _367  and  _370
REMARK  154  A    between atoms: _370  and  _371
REMARK  155  A    between atoms: _374  and  _376
REMARK  156  A    between atoms: _376  and  _377
REMARK  157  A    between atoms: _376  and  _379
REMARK  158  A    between atoms: _379  and  _380
REMARK  159  A    between atoms: _383  and  _385
REMARK  160  A    between atoms: _385  and  _386
REMARK  161  A    between atoms: _385  and  _388
REMARK  162  A    between atoms: _391  and  _393
REMARK  163  A    between atoms: _393  and  _394
REMARK  164  A    between atoms: _393  and  _396
REMARK  165  A    between atoms: _396  and  _397
REMARK  166  A    between atoms: _397  and  _398
REMARK  167  A    between atoms: _398  and  _399
REMARK  168  A    between atoms: _399  and  _400
REMARK  169  A    between atoms: _404  and  _406
REMARK  170  A    between atoms: _406  and  _407
REMARK  171  A    between atoms: _406  and  _409
REMARK  172  A    between atoms: _409  and  _410
REMARK  173  A    between atoms: _410  and  _411
REMARK  174  A    between atoms: _413  and  _415
REMARK  175  A    between atoms: _415  and  _416
REMARK  176  A    between atoms: _415  and  _418
REMARK  177  A    between atoms: _418  and  _419
REMARK  178  A    between atoms: _422  and  _424
REMARK  179  A    between atoms: _424  and  _425
REMARK  180  A    between atoms: _427  and  _429
REMARK  181  A    between atoms: _429  and  _430
REMARK  182  A    between atoms: _432  and  _434
REMARK  183  A    between atoms: _434  and  _435
REMARK  184  A    between atoms: _434  and  _437
REMARK  185  A    between atoms: _440  and  _442
REMARK  186  A    between atoms: _442  and  _443
REMARK  187  A    between atoms: _445  and  _447
REMARK  188  A    between atoms: _447  and  _448
REMARK  189  A    between atoms: _450  and  _452
REMARK  190  A    between atoms: _452  and  _453
REMARK  191  A    between atoms: _452  and  _455
REMARK  192  A    between atoms: _455  and  _456
REMARK  193  A    between atoms: _462  and  _464
REMARK  194  A    between atoms: _464  and  _465
REMARK  195  A    between atoms: _464  and  _467
REMARK  196  A    between atoms: _467  and  _468
REMARK  197  A    between atoms: _471  and  _473
REMARK  198  A    between atoms: _473  and  _474
REMARK  199  A    between atoms: _473  and  _476
REMARK  200  A    between atoms: _479  and  _481
REMARK  201  A    between atoms: _481  and  _482
REMARK  202  A    between atoms: _481  and  _484
REMARK  203  A    between atoms: _484  and  _485
REMARK  204  A    between atoms: _489  and  _490
REMARK  205  A    between atoms: _495  and  _497
REMARK  206  A    between atoms: _497  and  _498
REMARK  207  A    between atoms: _497  and  _500
REMARK  208  A    between atoms: _500  and  _501
REMARK  209  A    between atoms: _505  and  _506
REMARK  210  A    between atoms: _511  and  _513
REMARK  211  A    between atoms: _513  and  _514
REMARK  212  A    between atoms: _513  and  _516
REMARK  213  A    between atoms: _519  and  _521
REMARK  214  A    between atoms: _521  and  _522
REMARK  215  A    between atoms: _521  and  _524
REMARK  216  A    between atoms: _524  and  _525
REMARK  217  A    between atoms: _530  and  _532
REMARK  218  A    between atoms: _532  and  _533
REMARK  219  A    between atoms: _532  and  _535
REMARK  220  A    between atoms: _535  and  _536
REMARK  221  A    between atoms: _539  and  _541
REMARK  222  A    between atoms: _541  and  _542
REMARK  223  A    between atoms: _541  and  _544
REMARK  224  A    between atoms: _544  and  _545
REMARK  225  A    between atoms: _548  and  _550
REMARK  226  A    between atoms: _550  and  _551
REMARK  227  A    between atoms: _553  and  _555
REMARK  228  A    between atoms: _555  and  _556
REMARK  229  A    between atoms: _555  and  _558
REMARK  230  A    between atoms: _558  and  _559
REMARK  231  A    between atoms: _559  and  _560
REMARK  232  A    between atoms: _560  and  _561
REMARK  233  A    between atoms: _570  and  _572
REMARK  234  A    between atoms: _572  and  _573
REMARK  235  A    between atoms: _572  and  _575
REMARK  236  A    between atoms: _575  and  _576
REMARK                            x       y       z     vdW  Elec       q    Type
REMARK                         _______ _______ _______ _____ _____    ______ ____
ROOT
ATOM      1  O   HOH     1       4.199  19.186  23.051  0.00  0.00    +0.000 OA
ENDROOT
TORSDOF 0
REMARK  Name = ../refined-set-2016/2avq/2avq_pocket.pdb
REMARK  236 active torsions:
REMARK  status: ('A' for Active; 'I' for Inactive)
REMARK    1  A    between atoms: _1  and  _3
REMARK    2  A    between atoms: _3  and  _4
REMARK    3  A    between atoms: _3  and  _6
REMARK    4  A    between atoms: _6  and  _7
REMARK    5  A    between atoms: _7  and  _8
REMARK    6  A    between atoms: _8  and  _9
REMARK    7  A    between atoms: _18  and  _20
REMARK    8  A    between atoms: _20  and  _21
REMARK    9  A    between atoms: _20  and  _23
REMARK   10  A    between atoms: _23  and  _24
REMARK   11  A    between atoms: _27  and  _29
REMARK   12  A    between atoms: _29  and  _30
REMARK   13  A    between atoms: _29  and  _32
REMARK   14  A    between atoms: _32  and  _33
REMARK   15  A    between atoms: _36  and  _38
REMARK   16  A    between atoms: _38  and  _39
REMARK   17  A    between atoms: _38  and  _41
REMARK   18  A    between atoms: _41  and  _42
REMARK   19  A    between atoms: _45  and  _47
REMARK   20  A    between atoms: _47  and  _48
REMARK   21  A    between atoms: _47  and  _50
REMARK   22  A    between atoms: _50  and  _51
REMARK   23  A    between atoms: _54  and  _56
REMARK   24  A    between atoms: _56  and  _57
REMARK   25  A    between atoms: _56  and  _59
REMARK   26  A    between atoms: _59  and  _60
REMARK   27  A    between atoms: _63  and  _65
REMARK   28  A    between atoms: _65  and  _66
REMARK   29  A    between atoms: _68  and  _70
REMARK   30  A    between atoms: _70  and  _71
REMARK   31  A    between atoms: _74  and  _76
REMARK   32  A    between atoms: _76  and  _77
REMARK   33  A    between atoms: _76  and  _79
REMARK   34  A    between atoms: _79  and  _80
REMARK   35  A    between atoms: _83  and  _85
REMARK   36  A    between atoms: _85  and  _86
REMARK   37  A    between atoms: _85  and  _88
REMARK   38  A    between atoms: _88  and  _89
REMARK   39  A    between atoms: _92  and  _94
REMARK   40  A    between atoms: _94  and  _95
REMARK   41  A    between atoms: _94  and  _97
REMARK   42  A    between atoms: _97  and  _98
REMARK   43  A    between atoms: _101  and  _103
REMARK   44  A    between atoms: _103  and  _104
REMARK   45  A    between atoms: _103  and  _106
REMARK   46  A    between atoms: _109  and  _111
REMARK   47  A    between atoms: _111  and  _112
REMARK   48  A    between atoms: _111  and  _114
REMARK   49  A    between atoms: _114  and  _115
REMARK   50  A    between atoms: _115  and  _116
REMARK   51  A    between atoms: _116  and  _117
REMARK   52  A    between atoms: _117  and  _118
REMARK   53  A    between atoms: _122  and  _124
REMARK   54  A    between atoms: _124  and  _125
REMARK   55  A    between atoms: _124  and  _127
REMARK   56  A    between atoms: _127  and  _128
REMARK   57  A    between atoms: _128  and  _129
REMARK   58  A    between atoms: _131  and  _133
REMARK   59  A    between atoms: _133  and  _134
REMARK   60  A    between atoms: _133  and  _136
REMARK   61  A    between atoms: _136  and  _137
REMARK   62  A    between atoms: _140  and  _142
REMARK   63  A    between atoms: _142  and  _143
REMARK   64  A    between atoms: _145  and  _147
REMARK   65  A    between atoms: _147  and  _148
REMARK   66  A    between atoms: _150  and  _152
REMARK   67  A    between atoms: _152  and  _153
REMARK   68  A    between atoms: _152  and  _155
REMARK   69  A    between atoms: _158  and  _160
REMARK   70  A    between atoms: _160  and  _161
REMARK   71  A    between atoms: _163  and  _165
REMARK   72  A    between atoms: _165  and  _166
REMARK   73  A    between atoms: _168  and  _170
REMARK   74  A    between atoms: _170  and  _171
REMARK   75  A    between atoms: _170  and  _173
REMARK   76  A    between atoms: _173  and  _174
REMARK   77  A    between atoms: _180  and  _182
REMARK   78  A    between atoms: _182  and  _183
REMARK   79  A    between atoms: _182  and  _185
REMARK   80  A    between atoms: _185  and  _186
REMARK   81  A    between atoms: _189  and  _191
REMARK   82  A    between atoms: _191  and  _192
REMARK   83  A    between atoms: _191  and  _194
REMARK   84  A    between atoms: _197  and  _199
REMARK   85  A    between atoms: _199  and  _200
REMARK   86  A    between atoms: _199  and  _202
REMARK   87  A    between atoms: _202  and  _203
REMARK   88  A    between atoms: _206  and  _208
REMARK   89  A    between atoms: _208  and  _209
REMARK   90  A    between atoms: _208  and  _211
REMARK   91  A    between atoms: _211  and  _212
REMARK   92  A    between atoms: _216  and  _217
REMARK   93  A    between atoms: _222  and  _224
REMARK   94  A    between atoms: _224  and  _225
REMARK   95  A    between atoms: _224  and  _227
REMARK   96  A    between atoms: _230  and  _232
REMARK   97  A    between atoms: _232  and  _233
REMARK   98  A    between atoms: _232  and  _235
REMARK   99  A    between atoms: _235  and  _236
REMARK  100  A    between atoms: _241  and  _243
REMARK  101  A    between atoms: _243  and  _244
REMARK  102  A    between atoms: _243  and  _246
REMARK  103  A    between atoms: _246  and  _247
REMARK  104  A    between atoms: _250  and  _252
REMARK  105  A    between atoms: _252  and  _253
REMARK  106  A    between atoms: _252  and  _255
REMARK  107  A    between atoms: _255  and  _256
REMARK  108  A    between atoms: _259  and  _261
REMARK  109  A    between atoms: _261  and  _262
REMARK  110  A    between atoms: _264  and  _266
REMARK  111  A    between atoms: _266  and  _267
REMARK  112  A    between atoms: _266  and  _269
REMARK  113  A    between atoms: _269  and  _270
REMARK  114  A    between atoms: _270  and  _271
REMARK  115  A    between atoms: _271  and  _272
REMARK  116  A    between atoms: _281  and  _283
REMARK  117  A    between atoms: _283  and  _284
REMARK  118  A    between atoms: _283  and  _286
REMARK  119  A    between atoms: _286  and  _287
REMARK  120  A    between atoms: _292  and  _294
REMARK  121  A    between atoms: _294  and  _295
REMARK  122  A    between atoms: _294  and  _297
REMARK  123  A    between atoms: _297  and  _298
REMARK  124  A    between atoms: _298  and  _299
REMARK  125  A    between atoms: _299  and  _300
REMARK  126  A    between atoms: _302  and  _303
REMARK  127  A    between atoms: _309  and  _311
REMARK  128  A    between atoms: _311  and  _312
REMARK  129  A    between atoms: _311  and  _314
REMARK  130  A    between atoms: _314  and  _315
REMARK  131  A    between atoms: _318  and  _320
REMARK  132  A    between atoms: _320  and  _321
REMARK  133  A    between atoms: _320  and  _323
REMARK  134  A    between atoms: _323  and  _324
REMARK  135  A    between atoms: _327  and  _329
REMARK  136  A    between atoms: _329  and  _330
REMARK  137  A    between atoms: _329  and  _332
REMARK  138  A    between atoms: _332  and  _333
REMARK  139  A    between atoms: _336  and  _338
REMARK  140  A    between atoms: _338  and  _339
REMARK  141  A    between atoms: _338  and  _341
REMARK  142  A    between atoms: _341  and  _342
REMARK  143  A    between atoms: _345  and  _347
REMARK  144  A    between atoms: _347  and  _348
REMARK  145  A    between atoms: _350  and  _352
REMARK  146  A    between atoms: _352  and  _353
REMARK  147  A    between atoms: _356  and  _358
REMARK  148  A    between atoms: _358  and  _359
REMARK  149  A    between atoms: _358  and  _361
REMARK  150  A    between atoms: _361  and  _362
REMARK  151  A    between atoms: _365  and  _367
REMARK  152  A    between atoms: _367  and  _368
REMARK  153  A    between atoms: _367  and  _370
REMARK  154  A    between atoms: _370  and  _371
REMARK  155  A    between atoms: _374  and  _376
REMARK  156  A    between atoms: _376  and  _377
REMARK  157  A    between atoms: _376  and  _379
REMARK  158  A    between atoms: _379  and  _380
REMARK  159  A    between atoms: _383  and  _385
REMARK  160  A    between atoms: _385  and  _386
REMARK  161  A    between atoms: _385  and  _388
REMARK  162  A    between atoms: _391  and  _393
REMARK  163  A    between atoms: _393  and  _394
REMARK  164  A    between atoms: _393  and  _396
REMARK  165  A    between atoms: _396  and  _397
REMARK  166  A    between atoms: _397  and  _398
REMARK  167  A    between atoms: _398  and  _399
REMARK  168  A    between atoms: _399  and  _400
REMARK  169  A    between atoms: _404  and  _406
REMARK  170  A    between atoms: _406  and  _407
REMARK  171  A    between atoms: _406  and  _409
REMARK  172  A    between atoms: _409  and  _410
REMARK  173  A    between atoms: _410  and  _411
REMARK  174  A    between atoms: _413  and  _415
REMARK  175  A    between atoms: _415  and  _416
REMARK  176  A    between atoms: _415  and  _418
REMARK  177  A    between atoms: _418  and  _419
REMARK  178  A    between atoms: _422  and  _424
REMARK  179  A    between atoms: _424  and  _425
REMARK  180  A    between atoms: _427  and  _429
REMARK  181  A    between atoms: _429  and  _430
REMARK  182  A    between atoms: _432  and  _434
REMARK  183  A    between atoms: _434  and  _435
REMARK  184  A    between atoms: _434  and  _437
REMARK  185  A    between atoms: _440  and  _442
REMARK  186  A    between atoms: _442  and  _443
REMARK  187  A    between atoms: _445  and  _447
REMARK  188  A    between atoms: _447  and  _448
REMARK  189  A    between atoms: _450  and  _452
REMARK  190  A    between atoms: _452  and  _453
REMARK  191  A    between atoms: _452  and  _455
REMARK  192  A    between atoms: _455  and  _456
REMARK  193  A    between atoms: _462  and  _464
REMARK  194  A    between atoms: _464  and  _465
REMARK  195  A    between atoms: _464  and  _467
REMARK  196  A    between atoms: _467  and  _468
REMARK  197  A    between atoms: _471  and  _473
REMARK  198  A    between atoms: _473  and  _474
REMARK  199  A    between atoms: _473  and  _476
REMARK  200  A    between atoms: _479  and  _481
REMARK  201  A    between atoms: _481  and  _482
REMARK  202  A    between atoms: _481  and  _484
REMARK  203  A    between atoms: _484  and  _485
REMARK  204  A    between atoms: _489  and  _490
REMARK  205  A    between atoms: _495  and  _497
REMARK  206  A    between atoms: _497  and  _498
REMARK  207  A    between atoms: _497  and  _500
REMARK  208  A    between atoms: _500  and  _501
REMARK  209  A    between atoms: _505  and  _506
REMARK  210  A    between atoms: _511  and  _513
REMARK  211  A    between atoms: _513  and  _514
REMARK  212  A    between atoms: _513  and  _516
REMARK  213  A    between atoms: _519  and  _521
REMARK  214  A    between atoms: _521  and  _522
REMARK  215  A    between atoms: _521  and  _524
REMARK  216  A    between atoms: _524  and  _525
REMARK  217  A    between atoms: _530  and  _532
REMARK  218  A    between atoms: _532  and  _533
REMARK  219  A    between atoms: _532  and  _535
REMARK  220  A    between atoms: _535  and  _536
REMARK  221  A    between atoms: _539  and  _541
REMARK  222  A    between atoms: _541  and  _542
REMARK  223  A    between atoms: _541  and  _544
REMARK  224  A    between atoms: _544  and  _545
REMARK  225  A    between atoms: _548  and  _550
REMARK  226  A    between atoms: _550  and  _551
REMARK  227  A    between atoms: _553  and  _555
REMARK  228  A    between atoms: _555  and  _556
REMARK  229  A    between atoms: _555  and  _558
REMARK  230  A    between atoms: _558  and  _559
REMARK  231  A    between atoms: _559  and  _560
REMARK  232  A    between atoms: _560  and  _561
REMARK  233  A    between atoms: _570  and  _572
REMARK  234  A    between atoms: _572  and  _573
REMARK  235  A    between atoms: _572  and  _575
REMARK  236  A    between atoms: _575  and  _576
REMARK                            x       y       z     vdW  Elec       q    Type
REMARK                         _______ _______ _______ _____ _____    ______ ____
ROOT
ATOM      1  O   HOH     1       7.210  22.635  12.058  0.00  0.00    +0.000 OA
ENDROOT
TORSDOF 0
REMARK  Name = ../refined-set-2016/2avq/2avq_pocket.pdb
REMARK  236 active torsions:
REMARK  status: ('A' for Active; 'I' for Inactive)
REMARK    1  A    between atoms: _1  and  _3
REMARK    2  A    between atoms: _3  and  _4
REMARK    3  A    between atoms: _3  and  _6
REMARK    4  A    between atoms: _6  and  _7
REMARK    5  A    between atoms: _7  and  _8
REMARK    6  A    between atoms: _8  and  _9
REMARK    7  A    between atoms: _18  and  _20
REMARK    8  A    between atoms: _20  and  _21
REMARK    9  A    between atoms: _20  and  _23
REMARK   10  A    between atoms: _23  and  _24
REMARK   11  A    between atoms: _27  and  _29
REMARK   12  A    between atoms: _29  and  _30
REMARK   13  A    between atoms: _29  and  _32
REMARK   14  A    between atoms: _32  and  _33
REMARK   15  A    between atoms: _36  and  _38
REMARK   16  A    between atoms: _38  and  _39
REMARK   17  A    between atoms: _38  and  _41
REMARK   18  A    between atoms: _41  and  _42
REMARK   19  A    between atoms: _45  and  _47
REMARK   20  A    between atoms: _47  and  _48
REMARK   21  A    between atoms: _47  and  _50
REMARK   22  A    between atoms: _50  and  _51
REMARK   23  A    between atoms: _54  and  _56
REMARK   24  A    between atoms: _56  and  _57
REMARK   25  A    between atoms: _56  and  _59
REMARK   26  A    between atoms: _59  and  _60
REMARK   27  A    between atoms: _63  and  _65
REMARK   28  A    between atoms: _65  and  _66
REMARK   29  A    between atoms: _68  and  _70
REMARK   30  A    between atoms: _70  and  _71
REMARK   31  A    between atoms: _74  and  _76
REMARK   32  A    between atoms: _76  and  _77
REMARK   33  A    between atoms: _76  and  _79
REMARK   34  A    between atoms: _79  and  _80
REMARK   35  A    between atoms: _83  and  _85
REMARK   36  A    between atoms: _85  and  _86
REMARK   37  A    between atoms: _85  and  _88
REMARK   38  A    between atoms: _88  and  _89
REMARK   39  A    between atoms: _92  and  _94
REMARK   40  A    between atoms: _94  and  _95
REMARK   41  A    between atoms: _94  and  _97
REMARK   42  A    between atoms: _97  and  _98
REMARK   43  A    between atoms: _101  and  _103
REMARK   44  A    between atoms: _103  and  _104
REMARK   45  A    between atoms: _103  and  _106
REMARK   46  A    between atoms: _109  and  _111
REMARK   47  A    between atoms: _111  and  _112
REMARK   48  A    between atoms: _111  and  _114
REMARK   49  A    between atoms: _114  and  _115
REMARK   50  A    between atoms: _115  and  _116
REMARK   51  A    between atoms: _116  and  _117
REMARK   52  A    between atoms: _117  and  _118
REMARK   53  A    between atoms: _122  and  _124
REMARK   54  A    between atoms: _124  and  _125
REMARK   55  A    between atoms: _124  and  _127
REMARK   56  A    between atoms: _127  and  _128
REMARK   57  A    between atoms: _128  and  _129
REMARK   58  A    between atoms: _131  and  _133
REMARK   59  A    between atoms: _133  and  _134
REMARK   60  A    between atoms: _133  and  _136
REMARK   61  A    between atoms: _136  and  _137
REMARK   62  A    between atoms: _140  and  _142
REMARK   63  A    between atoms: _142  and  _143
REMARK   64  A    between atoms: _145  and  _147
REMARK   65  A    between atoms: _147  and  _148
REMARK   66  A    between atoms: _150  and  _152
REMARK   67  A    between atoms: _152  and  _153
REMARK   68  A    between atoms: _152  and  _155
REMARK   69  A    between atoms: _158  and  _160
REMARK   70  A    between atoms: _160  and  _161
REMARK   71  A    between atoms: _163  and  _165
REMARK   72  A    between atoms: _165  and  _166
REMARK   73  A    between atoms: _168  and  _170
REMARK   74  A    between atoms: _170  and  _171
REMARK   75  A    between atoms: _170  and  _173
REMARK   76  A    between atoms: _173  and  _174
REMARK   77  A    between atoms: _180  and  _182
REMARK   78  A    between atoms: _182  and  _183
REMARK   79  A    between atoms: _182  and  _185
REMARK   80  A    between atoms: _185  and  _186
REMARK   81  A    between atoms: _189  and  _191
REMARK   82  A    between atoms: _191  and  _192
REMARK   83  A    between atoms: _191  and  _194
REMARK   84  A    between atoms: _197  and  _199
REMARK   85  A    between atoms: _199  and  _200
REMARK   86  A    between atoms: _199  and  _202
REMARK   87  A    between atoms: _202  and  _203
REMARK   88  A    between atoms: _206  and  _208
REMARK   89  A    between atoms: _208  and  _209
REMARK   90  A    between atoms: _208  and  _211
REMARK   91  A    between atoms: _211  and  _212
REMARK   92  A    between atoms: _216  and  _217
REMARK   93  A    between atoms: _222  and  _224
REMARK   94  A    between atoms: _224  and  _225
REMARK   95  A    between atoms: _224  and  _227
REMARK   96  A    between atoms: _230  and  _232
REMARK   97  A    between atoms: _232  and  _233
REMARK   98  A    between atoms: _232  and  _235
REMARK   99  A    between atoms: _235  and  _236
REMARK  100  A    between atoms: _241  and  _243
REMARK  101  A    between atoms: _243  and  _244
REMARK  102  A    between atoms: _243  and  _246
REMARK  103  A    between atoms: _246  and  _247
REMARK  104  A    between atoms: _250  and  _252
REMARK  105  A    between atoms: _252  and  _253
REMARK  106  A    between atoms: _252  and  _255
REMARK  107  A    between atoms: _255  and  _256
REMARK  108  A    between atoms: _259  and  _261
REMARK  109  A    between atoms: _261  and  _262
REMARK  110  A    between atoms: _264  and  _266
REMARK  111  A    between atoms: _266  and  _267
REMARK  112  A    between atoms: _266  and  _269
REMARK  113  A    between atoms: _269  and  _270
REMARK  114  A    between atoms: _270  and  _271
REMARK  115  A    between atoms: _271  and  _272
REMARK  116  A    between atoms: _281  and  _283
REMARK  117  A    between atoms: _283  and  _284
REMARK  118  A    between atoms: _283  and  _286
REMARK  119  A    between atoms: _286  and  _287
REMARK  120  A    between atoms: _292  and  _294
REMARK  121  A    between atoms: _294  and  _295
REMARK  122  A    between atoms: _294  and  _297
REMARK  123  A    between atoms: _297  and  _298
REMARK  124  A    between atoms: _298  and  _299
REMARK  125  A    between atoms: _299  and  _300
REMARK  126  A    between atoms: _302  and  _303
REMARK  127  A    between atoms: _309  and  _311
REMARK  128  A    between atoms: _311  and  _312
REMARK  129  A    between atoms: _311  and  _314
REMARK  130  A    between atoms: _314  and  _315
REMARK  131  A    between atoms: _318  and  _320
REMARK  132  A    between atoms: _320  and  _321
REMARK  133  A    between atoms: _320  and  _323
REMARK  134  A    between atoms: _323  and  _324
REMARK  135  A    between atoms: _327  and  _329
REMARK  136  A    between atoms: _329  and  _330
REMARK  137  A    between atoms: _329  and  _332
REMARK  138  A    between atoms: _332  and  _333
REMARK  139  A    between atoms: _336  and  _338
REMARK  140  A    between atoms: _338  and  _339
REMARK  141  A    between atoms: _338  and  _341
REMARK  142  A    between atoms: _341  and  _342
REMARK  143  A    between atoms: _345  and  _347
REMARK  144  A    between atoms: _347  and  _348
REMARK  145  A    between atoms: _350  and  _352
REMARK  146  A    between atoms: _352  and  _353
REMARK  147  A    between atoms: _356  and  _358
REMARK  148  A    between atoms: _358  and  _359
REMARK  149  A    between atoms: _358  and  _361
REMARK  150  A    between atoms: _361  and  _362
REMARK  151  A    between atoms: _365  and  _367
REMARK  152  A    between atoms: _367  and  _368
REMARK  153  A    between atoms: _367  and  _370
REMARK  154  A    between atoms: _370  and  _371
REMARK  155  A    between atoms: _374  and  _376
REMARK  156  A    between atoms: _376  and  _377
REMARK  157  A    between atoms: _376  and  _379
REMARK  158  A    between atoms: _379  and  _380
REMARK  159  A    between atoms: _383  and  _385
REMARK  160  A    between atoms: _385  and  _386
REMARK  161  A    between atoms: _385  and  _388
REMARK  162  A    between atoms: _391  and  _393
REMARK  163  A    between atoms: _393  and  _394
REMARK  164  A    between atoms: _393  and  _396
REMARK  165  A    between atoms: _396  and  _397
REMARK  166  A    between atoms: _397  and  _398
REMARK  167  A    between atoms: _398  and  _399
REMARK  168  A    between atoms: _399  and  _400
REMARK  169  A    between atoms: _404  and  _406
REMARK  170  A    between atoms: _406  and  _407
REMARK  171  A    between atoms: _406  and  _409
REMARK  172  A    between atoms: _409  and  _410
REMARK  173  A    between atoms: _410  and  _411
REMARK  174  A    between atoms: _413  and  _415
REMARK  175  A    between atoms: _415  and  _416
REMARK  176  A    between atoms: _415  and  _418
REMARK  177  A    between atoms: _418  and  _419
REMARK  178  A    between atoms: _422  and  _424
REMARK  179  A    between atoms: _424  and  _425
REMARK  180  A    between atoms: _427  and  _429
REMARK  181  A    between atoms: _429  and  _430
REMARK  182  A    between atoms: _432  and  _434
REMARK  183  A    between atoms: _434  and  _435
REMARK  184  A    between atoms: _434  and  _437
REMARK  185  A    between atoms: _440  and  _442
REMARK  186  A    between atoms: _442  and  _443
REMARK  187  A    between atoms: _445  and  _447
REMARK  188  A    between atoms: _447  and  _448
REMARK  189  A    between atoms: _450  and  _452
REMARK  190  A    between atoms: _452  and  _453
REMARK  191  A    between atoms: _452  and  _455
REMARK  192  A    between atoms: _455  and  _456
REMARK  193  A    between atoms: _462  and  _464
REMARK  194  A    between atoms: _464  and  _465
REMARK  195  A    between atoms: _464  and  _467
REMARK  196  A    between atoms: _467  and  _468
REMARK  197  A    between atoms: _471  and  _473
REMARK  198  A    between atoms: _473  and  _474
REMARK  199  A    between atoms: _473  and  _476
REMARK  200  A    between atoms: _479  and  _481
REMARK  201  A    between atoms: _481  and  _482
REMARK  202  A    between atoms: _481  and  _484
REMARK  203  A    between atoms: _484  and  _485
REMARK  204  A    between atoms: _489  and  _490
REMARK  205  A    between atoms: _495  and  _497
REMARK  206  A    between atoms: _497  and  _498
REMARK  207  A    between atoms: _497  and  _500
REMARK  208  A    between atoms: _500  and  _501
REMARK  209  A    between atoms: _505  and  _506
REMARK  210  A    between atoms: _511  and  _513
REMARK  211  A    between atoms: _513  and  _514
REMARK  212  A    between atoms: _513  and  _516
REMARK  213  A    between atoms: _519  and  _521
REMARK  214  A    between atoms: _521  and  _522
REMARK  215  A    between atoms: _521  and  _524
REMARK  216  A    between atoms: _524  and  _525
REMARK  217  A    between atoms: _530  and  _532
REMARK  218  A    between atoms: _532  and  _533
REMARK  219  A    between atoms: _532  and  _535
REMARK  220  A    between atoms: _535  and  _536
REMARK  221  A    between atoms: _539  and  _541
REMARK  222  A    between atoms: _541  and  _542
REMARK  223  A    between atoms: _541  and  _544
REMARK  224  A    between atoms: _544  and  _545
REMARK  225  A    between atoms: _548  and  _550
REMARK  226  A    between atoms: _550  and  _551
REMARK  227  A    between atoms: _553  and  _555
REMARK  228  A    between atoms: _555  and  _556
REMARK  229  A    between atoms: _555  and  _558
REMARK  230  A    between atoms: _558  and  _559
REMARK  231  A    between atoms: _559  and  _560
REMARK  232  A    between atoms: _560  and  _561
REMARK  233  A    between atoms: _570  and  _572
REMARK  234  A    between atoms: _572  and  _573
REMARK  235  A    between atoms: _572  and  _575
REMARK  236  A    between atoms: _575  and  _576
REMARK                            x       y       z     vdW  Elec       q    Type
REMARK                         _______ _______ _______ _____ _____    ______ ____
ROOT
ATOM      1  O   HOH     1       6.604  16.031  25.773  0.00  0.00    +0.000 OA
ENDROOT
TORSDOF 0
REMARK  Name = ../refined-set-2016/2avq/2avq_pocket.pdb
REMARK  236 active torsions:
REMARK  status: ('A' for Active; 'I' for Inactive)
REMARK    1  A    between atoms: _1  and  _3
REMARK    2  A    between atoms: _3  and  _4
REMARK    3  A    between atoms: _3  and  _6
REMARK    4  A    between atoms: _6  and  _7
REMARK    5  A    between atoms: _7  and  _8
REMARK    6  A    between atoms: _8  and  _9
REMARK    7  A    between atoms: _18  and  _20
REMARK    8  A    between atoms: _20  and  _21
REMARK    9  A    between atoms: _20  and  _23
REMARK   10  A    between atoms: _23  and  _24
REMARK   11  A    between atoms: _27  and  _29
REMARK   12  A    between atoms: _29  and  _30
REMARK   13  A    between atoms: _29  and  _32
REMARK   14  A    between atoms: _32  and  _33
REMARK   15  A    between atoms: _36  and  _38
REMARK   16  A    between atoms: _38  and  _39
REMARK   17  A    between atoms: _38  and  _41
REMARK   18  A    between atoms: _41  and  _42
REMARK   19  A    between atoms: _45  and  _47
REMARK   20  A    between atoms: _47  and  _48
REMARK   21  A    between atoms: _47  and  _50
REMARK   22  A    between atoms: _50  and  _51
REMARK   23  A    between atoms: _54  and  _56
REMARK   24  A    between atoms: _56  and  _57
REMARK   25  A    between atoms: _56  and  _59
REMARK   26  A    between atoms: _59  and  _60
REMARK   27  A    between atoms: _63  and  _65
REMARK   28  A    between atoms: _65  and  _66
REMARK   29  A    between atoms: _68  and  _70
REMARK   30  A    between atoms: _70  and  _71
REMARK   31  A    between atoms: _74  and  _76
REMARK   32  A    between atoms: _76  and  _77
REMARK   33  A    between atoms: _76  and  _79
REMARK   34  A    between atoms: _79  and  _80
REMARK   35  A    between atoms: _83  and  _85
REMARK   36  A    between atoms: _85  and  _86
REMARK   37  A    between atoms: _85  and  _88
REMARK   38  A    between atoms: _88  and  _89
REMARK   39  A    between atoms: _92  and  _94
REMARK   40  A    between atoms: _94  and  _95
REMARK   41  A    between atoms: _94  and  _97
REMARK   42  A    between atoms: _97  and  _98
REMARK   43  A    between atoms: _101  and  _103
REMARK   44  A    between atoms: _103  and  _104
REMARK   45  A    between atoms: _103  and  _106
REMARK   46  A    between atoms: _109  and  _111
REMARK   47  A    between atoms: _111  and  _112
REMARK   48  A    between atoms: _111  and  _114
REMARK   49  A    between atoms: _114  and  _115
REMARK   50  A    between atoms: _115  and  _116
REMARK   51  A    between atoms: _116  and  _117
REMARK   52  A    between atoms: _117  and  _118
REMARK   53  A    between atoms: _122  and  _124
REMARK   54  A    between atoms: _124  and  _125
REMARK   55  A    between atoms: _124  and  _127
REMARK   56  A    between atoms: _127  and  _128
REMARK   57  A    between atoms: _128  and  _129
REMARK   58  A    between atoms: _131  and  _133
REMARK   59  A    between atoms: _133  and  _134
REMARK   60  A    between atoms: _133  and  _136
REMARK   61  A    between atoms: _136  and  _137
REMARK   62  A    between atoms: _140  and  _142
REMARK   63  A    between atoms: _142  and  _143
REMARK   64  A    between atoms: _145  and  _147
REMARK   65  A    between atoms: _147  and  _148
REMARK   66  A    between atoms: _150  and  _152
REMARK   67  A    between atoms: _152  and  _153
REMARK   68  A    between atoms: _152  and  _155
REMARK   69  A    between atoms: _158  and  _160
REMARK   70  A    between atoms: _160  and  _161
REMARK   71  A    between atoms: _163  and  _165
REMARK   72  A    between atoms: _165  and  _166
REMARK   73  A    between atoms: _168  and  _170
REMARK   74  A    between atoms: _170  and  _171
REMARK   75  A    between atoms: _170  and  _173
REMARK   76  A    between atoms: _173  and  _174
REMARK   77  A    between atoms: _180  and  _182
REMARK   78  A    between atoms: _182  and  _183
REMARK   79  A    between atoms: _182  and  _185
REMARK   80  A    between atoms: _185  and  _186
REMARK   81  A    between atoms: _189  and  _191
REMARK   82  A    between atoms: _191  and  _192
REMARK   83  A    between atoms: _191  and  _194
REMARK   84  A    between atoms: _197  and  _199
REMARK   85  A    between atoms: _199  and  _200
REMARK   86  A    between atoms: _199  and  _202
REMARK   87  A    between atoms: _202  and  _203
REMARK   88  A    between atoms: _206  and  _208
REMARK   89  A    between atoms: _208  and  _209
REMARK   90  A    between atoms: _208  and  _211
REMARK   91  A    between atoms: _211  and  _212
REMARK   92  A    between atoms: _216  and  _217
REMARK   93  A    between atoms: _222  and  _224
REMARK   94  A    between atoms: _224  and  _225
REMARK   95  A    between atoms: _224  and  _227
REMARK   96  A    between atoms: _230  and  _232
REMARK   97  A    between atoms: _232  and  _233
REMARK   98  A    between atoms: _232  and  _235
REMARK   99  A    between atoms: _235  and  _236
REMARK  100  A    between atoms: _241  and  _243
REMARK  101  A    between atoms: _243  and  _244
REMARK  102  A    between atoms: _243  and  _246
REMARK  103  A    between atoms: _246  and  _247
REMARK  104  A    between atoms: _250  and  _252
REMARK  105  A    between atoms: _252  and  _253
REMARK  106  A    between atoms: _252  and  _255
REMARK  107  A    between atoms: _255  and  _256
REMARK  108  A    between atoms: _259  and  _261
REMARK  109  A    between atoms: _261  and  _262
REMARK  110  A    between atoms: _264  and  _266
REMARK  111  A    between atoms: _266  and  _267
REMARK  112  A    between atoms: _266  and  _269
REMARK  113  A    between atoms: _269  and  _270
REMARK  114  A    between atoms: _270  and  _271
REMARK  115  A    between atoms: _271  and  _272
REMARK  116  A    between atoms: _281  and  _283
REMARK  117  A    between atoms: _283  and  _284
REMARK  118  A    between atoms: _283  and  _286
REMARK  119  A    between atoms: _286  and  _287
REMARK  120  A    between atoms: _292  and  _294
REMARK  121  A    between atoms: _294  and  _295
REMARK  122  A    between atoms: _294  and  _297
REMARK  123  A    between atoms: _297  and  _298
REMARK  124  A    between atoms: _298  and  _299
REMARK  125  A    between atoms: _299  and  _300
REMARK  126  A    between atoms: _302  and  _303
REMARK  127  A    between atoms: _309  and  _311
REMARK  128  A    between atoms: _311  and  _312
REMARK  129  A    between atoms: _311  and  _314
REMARK  130  A    between atoms: _314  and  _315
REMARK  131  A    between atoms: _318  and  _320
REMARK  132  A    between atoms: _320  and  _321
REMARK  133  A    between atoms: _320  and  _323
REMARK  134  A    between atoms: _323  and  _324
REMARK  135  A    between atoms: _327  and  _329
REMARK  136  A    between atoms: _329  and  _330
REMARK  137  A    between atoms: _329  and  _332
REMARK  138  A    between atoms: _332  and  _333
REMARK  139  A    between atoms: _336  and  _338
REMARK  140  A    between atoms: _338  and  _339
REMARK  141  A    between atoms: _338  and  _341
REMARK  142  A    between atoms: _341  and  _342
REMARK  143  A    between atoms: _345  and  _347
REMARK  144  A    between atoms: _347  and  _348
REMARK  145  A    between atoms: _350  and  _352
REMARK  146  A    between atoms: _352  and  _353
REMARK  147  A    between atoms: _356  and  _358
REMARK  148  A    between atoms: _358  and  _359
REMARK  149  A    between atoms: _358  and  _361
REMARK  150  A    between atoms: _361  and  _362
REMARK  151  A    between atoms: _365  and  _367
REMARK  152  A    between atoms: _367  and  _368
REMARK  153  A    between atoms: _367  and  _370
REMARK  154  A    between atoms: _370  and  _371
REMARK  155  A    between atoms: _374  and  _376
REMARK  156  A    between atoms: _376  and  _377
REMARK  157  A    between atoms: _376  and  _379
REMARK  158  A    between atoms: _379  and  _380
REMARK  159  A    between atoms: _383  and  _385
REMARK  160  A    between atoms: _385  and  _386
REMARK  161  A    between atoms: _385  and  _388
REMARK  162  A    between atoms: _391  and  _393
REMARK  163  A    between atoms: _393  and  _394
REMARK  164  A    between atoms: _393  and  _396
REMARK  165  A    between atoms: _396  and  _397
REMARK  166  A    between atoms: _397  and  _398
REMARK  167  A    between atoms: _398  and  _399
REMARK  168  A    between atoms: _399  and  _400
REMARK  169  A    between atoms: _404  and  _406
REMARK  170  A    between atoms: _406  and  _407
REMARK  171  A    between atoms: _406  and  _409
REMARK  172  A    between atoms: _409  and  _410
REMARK  173  A    between atoms: _410  and  _411
REMARK  174  A    between atoms: _413  and  _415
REMARK  175  A    between atoms: _415  and  _416
REMARK  176  A    between atoms: _415  and  _418
REMARK  177  A    between atoms: _418  and  _419
REMARK  178  A    between atoms: _422  and  _424
REMARK  179  A    between atoms: _424  and  _425
REMARK  180  A    between atoms: _427  and  _429
REMARK  181  A    between atoms: _429  and  _430
REMARK  182  A    between atoms: _432  and  _434
REMARK  183  A    between atoms: _434  and  _435
REMARK  184  A    between atoms: _434  and  _437
REMARK  185  A    between atoms: _440  and  _442
REMARK  186  A    between atoms: _442  and  _443
REMARK  187  A    between atoms: _445  and  _447
REMARK  188  A    between atoms: _447  and  _448
REMARK  189  A    between atoms: _450  and  _452
REMARK  190  A    between atoms: _452  and  _453
REMARK  191  A    between atoms: _452  and  _455
REMARK  192  A    between atoms: _455  and  _456
REMARK  193  A    between atoms: _462  and  _464
REMARK  194  A    between atoms: _464  and  _465
REMARK  195  A    between atoms: _464  and  _467
REMARK  196  A    between atoms: _467  and  _468
REMARK  197  A    between atoms: _471  and  _473
REMARK  198  A    between atoms: _473  and  _474
REMARK  199  A    between atoms: _473  and  _476
REMARK  200  A    between atoms: _479  and  _481
REMARK  201  A    between atoms: _481  and  _482
REMARK  202  A    between atoms: _481  and  _484
REMARK  203  A    between atoms: _484  and  _485
REMARK  204  A    between atoms: _489  and  _490
REMARK  205  A    between atoms: _495  and  _497
REMARK  206  A    between atoms: _497  and  _498
REMARK  207  A    between atoms: _497  and  _500
REMARK  208  A    between atoms: _500  and  _501
REMARK  209  A    between atoms: _505  and  _506
REMARK  210  A    between atoms: _511  and  _513
REMARK  211  A    between atoms: _513  and  _514
REMARK  212  A    between atoms: _513  and  _516
REMARK  213  A    between atoms: _519  and  _521
REMARK  214  A    between atoms: _521  and  _522
REMARK  215  A    between atoms: _521  and  _524
REMARK  216  A    between atoms: _524  and  _525
REMARK  217  A    between atoms: _530  and  _532
REMARK  218  A    between atoms: _532  and  _533
REMARK  219  A    between atoms: _532  and  _535
REMARK  220  A    between atoms: _535  and  _536
REMARK  221  A    between atoms: _539  and  _541
REMARK  222  A    between atoms: _541  and  _542
REMARK  223  A    between atoms: _541  and  _544
REMARK  224  A    between atoms: _544  and  _545
REMARK  225  A    between atoms: _548  and  _550
REMARK  226  A    between atoms: _550  and  _551
REMARK  227  A    between atoms: _553  and  _555
REMARK  228  A    between atoms: _555  and  _556
REMARK  229  A    between atoms: _555  and  _558
REMARK  230  A    between atoms: _558  and  _559
REMARK  231  A    between atoms: _559  and  _560
REMARK  232  A    between atoms: _560  and  _561
REMARK  233  A    between atoms: _570  and  _572
REMARK  234  A    between atoms: _572  and  _573
REMARK  235  A    between atoms: _572  and  _575
REMARK  236  A    between atoms: _575  and  _576
REMARK                            x       y       z     vdW  Elec       q    Type
REMARK                         _______ _______ _______ _____ _____    ______ ____
ROOT
ATOM      1  O   HOH     1       6.984  14.637  20.422  0.00  0.00    +0.000 OA
ENDROOT
TORSDOF 0
REMARK  Name = ../refined-set-2016/2avq/2avq_pocket.pdb
REMARK  236 active torsions:
REMARK  status: ('A' for Active; 'I' for Inactive)
REMARK    1  A    between atoms: _1  and  _3
REMARK    2  A    between atoms: _3  and  _4
REMARK    3  A    between atoms: _3  and  _6
REMARK    4  A    between atoms: _6  and  _7
REMARK    5  A    between atoms: _7  and  _8
REMARK    6  A    between atoms: _8  and  _9
REMARK    7  A    between atoms: _18  and  _20
REMARK    8  A    between atoms: _20  and  _21
REMARK    9  A    between atoms: _20  and  _23
REMARK   10  A    between atoms: _23  and  _24
REMARK   11  A    between atoms: _27  and  _29
REMARK   12  A    between atoms: _29  and  _30
REMARK   13  A    between atoms: _29  and  _32
REMARK   14  A    between atoms: _32  and  _33
REMARK   15  A    between atoms: _36  and  _38
REMARK   16  A    between atoms: _38  and  _39
REMARK   17  A    between atoms: _38  and  _41
REMARK   18  A    between atoms: _41  and  _42
REMARK   19  A    between atoms: _45  and  _47
REMARK   20  A    between atoms: _47  and  _48
REMARK   21  A    between atoms: _47  and  _50
REMARK   22  A    between atoms: _50  and  _51
REMARK   23  A    between atoms: _54  and  _56
REMARK   24  A    between atoms: _56  and  _57
REMARK   25  A    between atoms: _56  and  _59
REMARK   26  A    between atoms: _59  and  _60
REMARK   27  A    between atoms: _63  and  _65
REMARK   28  A    between atoms: _65  and  _66
REMARK   29  A    between atoms: _68  and  _70
REMARK   30  A    between atoms: _70  and  _71
REMARK   31  A    between atoms: _74  and  _76
REMARK   32  A    between atoms: _76  and  _77
REMARK   33  A    between atoms: _76  and  _79
REMARK   34  A    between atoms: _79  and  _80
REMARK   35  A    between atoms: _83  and  _85
REMARK   36  A    between atoms: _85  and  _86
REMARK   37  A    between atoms: _85  and  _88
REMARK   38  A    between atoms: _88  and  _89
REMARK   39  A    between atoms: _92  and  _94
REMARK   40  A    between atoms: _94  and  _95
REMARK   41  A    between atoms: _94  and  _97
REMARK   42  A    between atoms: _97  and  _98
REMARK   43  A    between atoms: _101  and  _103
REMARK   44  A    between atoms: _103  and  _104
REMARK   45  A    between atoms: _103  and  _106
REMARK   46  A    between atoms: _109  and  _111
REMARK   47  A    between atoms: _111  and  _112
REMARK   48  A    between atoms: _111  and  _114
REMARK   49  A    between atoms: _114  and  _115
REMARK   50  A    between atoms: _115  and  _116
REMARK   51  A    between atoms: _116  and  _117
REMARK   52  A    between atoms: _117  and  _118
REMARK   53  A    between atoms: _122  and  _124
REMARK   54  A    between atoms: _124  and  _125
REMARK   55  A    between atoms: _124  and  _127
REMARK   56  A    between atoms: _127  and  _128
REMARK   57  A    between atoms: _128  and  _129
REMARK   58  A    between atoms: _131  and  _133
REMARK   59  A    between atoms: _133  and  _134
REMARK   60  A    between atoms: _133  and  _136
REMARK   61  A    between atoms: _136  and  _137
REMARK   62  A    between atoms: _140  and  _142
REMARK   63  A    between atoms: _142  and  _143
REMARK   64  A    between atoms: _145  and  _147
REMARK   65  A    between atoms: _147  and  _148
REMARK   66  A    between atoms: _150  and  _152
REMARK   67  A    between atoms: _152  and  _153
REMARK   68  A    between atoms: _152  and  _155
REMARK   69  A    between atoms: _158  and  _160
REMARK   70  A    between atoms: _160  and  _161
REMARK   71  A    between atoms: _163  and  _165
REMARK   72  A    between atoms: _165  and  _166
REMARK   73  A    between atoms: _168  and  _170
REMARK   74  A    between atoms: _170  and  _171
REMARK   75  A    between atoms: _170  and  _173
REMARK   76  A    between atoms: _173  and  _174
REMARK   77  A    between atoms: _180  and  _182
REMARK   78  A    between atoms: _182  and  _183
REMARK   79  A    between atoms: _182  and  _185
REMARK   80  A    between atoms: _185  and  _186
REMARK   81  A    between atoms: _189  and  _191
REMARK   82  A    between atoms: _191  and  _192
REMARK   83  A    between atoms: _191  and  _194
REMARK   84  A    between atoms: _197  and  _199
REMARK   85  A    between atoms: _199  and  _200
REMARK   86  A    between atoms: _199  and  _202
REMARK   87  A    between atoms: _202  and  _203
REMARK   88  A    between atoms: _206  and  _208
REMARK   89  A    between atoms: _208  and  _209
REMARK   90  A    between atoms: _208  and  _211
REMARK   91  A    between atoms: _211  and  _212
REMARK   92  A    between atoms: _216  and  _217
REMARK   93  A    between atoms: _222  and  _224
REMARK   94  A    between atoms: _224  and  _225
REMARK   95  A    between atoms: _224  and  _227
REMARK   96  A    between atoms: _230  and  _232
REMARK   97  A    between atoms: _232  and  _233
REMARK   98  A    between atoms: _232  and  _235
REMARK   99  A    between atoms: _235  and  _236
REMARK  100  A    between atoms: _241  and  _243
REMARK  101  A    between atoms: _243  and  _244
REMARK  102  A    between atoms: _243  and  _246
REMARK  103  A    between atoms: _246  and  _247
REMARK  104  A    between atoms: _250  and  _252
REMARK  105  A    between atoms: _252  and  _253
REMARK  106  A    between atoms: _252  and  _255
REMARK  107  A    between atoms: _255  and  _256
REMARK  108  A    between atoms: _259  and  _261
REMARK  109  A    between atoms: _261  and  _262
REMARK  110  A    between atoms: _264  and  _266
REMARK  111  A    between atoms: _266  and  _267
REMARK  112  A    between atoms: _266  and  _269
REMARK  113  A    between atoms: _269  and  _270
REMARK  114  A    between atoms: _270  and  _271
REMARK  115  A    between atoms: _271  and  _272
REMARK  116  A    between atoms: _281  and  _283
REMARK  117  A    between atoms: _283  and  _284
REMARK  118  A    between atoms: _283  and  _286
REMARK  119  A    between atoms: _286  and  _287
REMARK  120  A    between atoms: _292  and  _294
REMARK  121  A    between atoms: _294  and  _295
REMARK  122  A    between atoms: _294  and  _297
REMARK  123  A    between atoms: _297  and  _298
REMARK  124  A    between atoms: _298  and  _299
REMARK  125  A    between atoms: _299  and  _300
REMARK  126  A    between atoms: _302  and  _303
REMARK  127  A    between atoms: _309  and  _311
REMARK  128  A    between atoms: _311  and  _312
REMARK  129  A    between atoms: _311  and  _314
REMARK  130  A    between atoms: _314  and  _315
REMARK  131  A    between atoms: _318  and  _320
REMARK  132  A    between atoms: _320  and  _321
REMARK  133  A    between atoms: _320  and  _323
REMARK  134  A    between atoms: _323  and  _324
REMARK  135  A    between atoms: _327  and  _329
REMARK  136  A    between atoms: _329  and  _330
REMARK  137  A    between atoms: _329  and  _332
REMARK  138  A    between atoms: _332  and  _333
REMARK  139  A    between atoms: _336  and  _338
REMARK  140  A    between atoms: _338  and  _339
REMARK  141  A    between atoms: _338  and  _341
REMARK  142  A    between atoms: _341  and  _342
REMARK  143  A    between atoms: _345  and  _347
REMARK  144  A    between atoms: _347  and  _348
REMARK  145  A    between atoms: _350  and  _352
REMARK  146  A    between atoms: _352  and  _353
REMARK  147  A    between atoms: _356  and  _358
REMARK  148  A    between atoms: _358  and  _359
REMARK  149  A    between atoms: _358  and  _361
REMARK  150  A    between atoms: _361  and  _362
REMARK  151  A    between atoms: _365  and  _367
REMARK  152  A    between atoms: _367  and  _368
REMARK  153  A    between atoms: _367  and  _370
REMARK  154  A    between atoms: _370  and  _371
REMARK  155  A    between atoms: _374  and  _376
REMARK  156  A    between atoms: _376  and  _377
REMARK  157  A    between atoms: _376  and  _379
REMARK  158  A    between atoms: _379  and  _380
REMARK  159  A    between atoms: _383  and  _385
REMARK  160  A    between atoms: _385  and  _386
REMARK  161  A    between atoms: _385  and  _388
REMARK  162  A    between atoms: _391  and  _393
REMARK  163  A    between atoms: _393  and  _394
REMARK  164  A    between atoms: _393  and  _396
REMARK  165  A    between atoms: _396  and  _397
REMARK  166  A    between atoms: _397  and  _398
REMARK  167  A    between atoms: _398  and  _399
REMARK  168  A    between atoms: _399  and  _400
REMARK  169  A    between atoms: _404  and  _406
REMARK  170  A    between atoms: _406  and  _407
REMARK  171  A    between atoms: _406  and  _409
REMARK  172  A    between atoms: _409  and  _410
REMARK  173  A    between atoms: _410  and  _411
REMARK  174  A    between atoms: _413  and  _415
REMARK  175  A    between atoms: _415  and  _416
REMARK  176  A    between atoms: _415  and  _418
REMARK  177  A    between atoms: _418  and  _419
REMARK  178  A    between atoms: _422  and  _424
REMARK  179  A    between atoms: _424  and  _425
REMARK  180  A    between atoms: _427  and  _429
REMARK  181  A    between atoms: _429  and  _430
REMARK  182  A    between atoms: _432  and  _434
REMARK  183  A    between atoms: _434  and  _435
REMARK  184  A    between atoms: _434  and  _437
REMARK  185  A    between atoms: _440  and  _442
REMARK  186  A    between atoms: _442  and  _443
REMARK  187  A    between atoms: _445  and  _447
REMARK  188  A    between atoms: _447  and  _448
REMARK  189  A    between atoms: _450  and  _452
REMARK  190  A    between atoms: _452  and  _453
REMARK  191  A    between atoms: _452  and  _455
REMARK  192  A    between atoms: _455  and  _456
REMARK  193  A    between atoms: _462  and  _464
REMARK  194  A    between atoms: _464  and  _465
REMARK  195  A    between atoms: _464  and  _467
REMARK  196  A    between atoms: _467  and  _468
REMARK  197  A    between atoms: _471  and  _473
REMARK  198  A    between atoms: _473  and  _474
REMARK  199  A    between atoms: _473  and  _476
REMARK  200  A    between atoms: _479  and  _481
REMARK  201  A    between atoms: _481  and  _482
REMARK  202  A    between atoms: _481  and  _484
REMARK  203  A    between atoms: _484  and  _485
REMARK  204  A    between atoms: _489  and  _490
REMARK  205  A    between atoms: _495  and  _497
REMARK  206  A    between atoms: _497  and  _498
REMARK  207  A    between atoms: _497  and  _500
REMARK  208  A    between atoms: _500  and  _501
REMARK  209  A    between atoms: _505  and  _506
REMARK  210  A    between atoms: _511  and  _513
REMARK  211  A    between atoms: _513  and  _514
REMARK  212  A    between atoms: _513  and  _516
REMARK  213  A    between atoms: _519  and  _521
REMARK  214  A    between atoms: _521  and  _522
REMARK  215  A    between atoms: _521  and  _524
REMARK  216  A    between atoms: _524  and  _525
REMARK  217  A    between atoms: _530  and  _532
REMARK  218  A    between atoms: _532  and  _533
REMARK  219  A    between atoms: _532  and  _535
REMARK  220  A    between atoms: _535  and  _536
REMARK  221  A    between atoms: _539  and  _541
REMARK  222  A    between atoms: _541  and  _542
REMARK  223  A    between atoms: _541  and  _544
REMARK  224  A    between atoms: _544  and  _545
REMARK  225  A    between atoms: _548  and  _550
REMARK  226  A    between atoms: _550  and  _551
REMARK  227  A    between atoms: _553  and  _555
REMARK  228  A    between atoms: _555  and  _556
REMARK  229  A    between atoms: _555  and  _558
REMARK  230  A    between atoms: _558  and  _559
REMARK  231  A    between atoms: _559  and  _560
REMARK  232  A    between atoms: _560  and  _561
REMARK  233  A    between atoms: _570  and  _572
REMARK  234  A    between atoms: _572  and  _573
REMARK  235  A    between atoms: _572  and  _575
REMARK  236  A    between atoms: _575  and  _576
REMARK                            x       y       z     vdW  Elec       q    Type
REMARK                         _______ _______ _______ _____ _____    ______ ____
ROOT
ATOM      1  O   HOH     1      16.636  15.293   9.816  0.00  0.00    +0.000 OA
ENDROOT
TORSDOF 0
REMARK  Name = ../refined-set-2016/2avq/2avq_pocket.pdb
REMARK  236 active torsions:
REMARK  status: ('A' for Active; 'I' for Inactive)
REMARK    1  A    between atoms: _1  and  _3
REMARK    2  A    between atoms: _3  and  _4
REMARK    3  A    between atoms: _3  and  _6
REMARK    4  A    between atoms: _6  and  _7
REMARK    5  A    between atoms: _7  and  _8
REMARK    6  A    between atoms: _8  and  _9
REMARK    7  A    between atoms: _18  and  _20
REMARK    8  A    between atoms: _20  and  _21
REMARK    9  A    between atoms: _20  and  _23
REMARK   10  A    between atoms: _23  and  _24
REMARK   11  A    between atoms: _27  and  _29
REMARK   12  A    between atoms: _29  and  _30
REMARK   13  A    between atoms: _29  and  _32
REMARK   14  A    between atoms: _32  and  _33
REMARK   15  A    between atoms: _36  and  _38
REMARK   16  A    between atoms: _38  and  _39
REMARK   17  A    between atoms: _38  and  _41
REMARK   18  A    between atoms: _41  and  _42
REMARK   19  A    between atoms: _45  and  _47
REMARK   20  A    between atoms: _47  and  _48
REMARK   21  A    between atoms: _47  and  _50
REMARK   22  A    between atoms: _50  and  _51
REMARK   23  A    between atoms: _54  and  _56
REMARK   24  A    between atoms: _56  and  _57
REMARK   25  A    between atoms: _56  and  _59
REMARK   26  A    between atoms: _59  and  _60
REMARK   27  A    between atoms: _63  and  _65
REMARK   28  A    between atoms: _65  and  _66
REMARK   29  A    between atoms: _68  and  _70
REMARK   30  A    between atoms: _70  and  _71
REMARK   31  A    between atoms: _74  and  _76
REMARK   32  A    between atoms: _76  and  _77
REMARK   33  A    between atoms: _76  and  _79
REMARK   34  A    between atoms: _79  and  _80
REMARK   35  A    between atoms: _83  and  _85
REMARK   36  A    between atoms: _85  and  _86
REMARK   37  A    between atoms: _85  and  _88
REMARK   38  A    between atoms: _88  and  _89
REMARK   39  A    between atoms: _92  and  _94
REMARK   40  A    between atoms: _94  and  _95
REMARK   41  A    between atoms: _94  and  _97
REMARK   42  A    between atoms: _97  and  _98
REMARK   43  A    between atoms: _101  and  _103
REMARK   44  A    between atoms: _103  and  _104
REMARK   45  A    between atoms: _103  and  _106
REMARK   46  A    between atoms: _109  and  _111
REMARK   47  A    between atoms: _111  and  _112
REMARK   48  A    between atoms: _111  and  _114
REMARK   49  A    between atoms: _114  and  _115
REMARK   50  A    between atoms: _115  and  _116
REMARK   51  A    between atoms: _116  and  _117
REMARK   52  A    between atoms: _117  and  _118
REMARK   53  A    between atoms: _122  and  _124
REMARK   54  A    between atoms: _124  and  _125
REMARK   55  A    between atoms: _124  and  _127
REMARK   56  A    between atoms: _127  and  _128
REMARK   57  A    between atoms: _128  and  _129
REMARK   58  A    between atoms: _131  and  _133
REMARK   59  A    between atoms: _133  and  _134
REMARK   60  A    between atoms: _133  and  _136
REMARK   61  A    between atoms: _136  and  _137
REMARK   62  A    between atoms: _140  and  _142
REMARK   63  A    between atoms: _142  and  _143
REMARK   64  A    between atoms: _145  and  _147
REMARK   65  A    between atoms: _147  and  _148
REMARK   66  A    between atoms: _150  and  _152
REMARK   67  A    between atoms: _152  and  _153
REMARK   68  A    between atoms: _152  and  _155
REMARK   69  A    between atoms: _158  and  _160
REMARK   70  A    between atoms: _160  and  _161
REMARK   71  A    between atoms: _163  and  _165
REMARK   72  A    between atoms: _165  and  _166
REMARK   73  A    between atoms: _168  and  _170
REMARK   74  A    between atoms: _170  and  _171
REMARK   75  A    between atoms: _170  and  _173
REMARK   76  A    between atoms: _173  and  _174
REMARK   77  A    between atoms: _180  and  _182
REMARK   78  A    between atoms: _182  and  _183
REMARK   79  A    between atoms: _182  and  _185
REMARK   80  A    between atoms: _185  and  _186
REMARK   81  A    between atoms: _189  and  _191
REMARK   82  A    between atoms: _191  and  _192
REMARK   83  A    between atoms: _191  and  _194
REMARK   84  A    between atoms: _197  and  _199
REMARK   85  A    between atoms: _199  and  _200
REMARK   86  A    between atoms: _199  and  _202
REMARK   87  A    between atoms: _202  and  _203
REMARK   88  A    between atoms: _206  and  _208
REMARK   89  A    between atoms: _208  and  _209
REMARK   90  A    between atoms: _208  and  _211
REMARK   91  A    between atoms: _211  and  _212
REMARK   92  A    between atoms: _216  and  _217
REMARK   93  A    between atoms: _222  and  _224
REMARK   94  A    between atoms: _224  and  _225
REMARK   95  A    between atoms: _224  and  _227
REMARK   96  A    between atoms: _230  and  _232
REMARK   97  A    between atoms: _232  and  _233
REMARK   98  A    between atoms: _232  and  _235
REMARK   99  A    between atoms: _235  and  _236
REMARK  100  A    between atoms: _241  and  _243
REMARK  101  A    between atoms: _243  and  _244
REMARK  102  A    between atoms: _243  and  _246
REMARK  103  A    between atoms: _246  and  _247
REMARK  104  A    between atoms: _250  and  _252
REMARK  105  A    between atoms: _252  and  _253
REMARK  106  A    between atoms: _252  and  _255
REMARK  107  A    between atoms: _255  and  _256
REMARK  108  A    between atoms: _259  and  _261
REMARK  109  A    between atoms: _261  and  _262
REMARK  110  A    between atoms: _264  and  _266
REMARK  111  A    between atoms: _266  and  _267
REMARK  112  A    between atoms: _266  and  _269
REMARK  113  A    between atoms: _269  and  _270
REMARK  114  A    between atoms: _270  and  _271
REMARK  115  A    between atoms: _271  and  _272
REMARK  116  A    between atoms: _281  and  _283
REMARK  117  A    between atoms: _283  and  _284
REMARK  118  A    between atoms: _283  and  _286
REMARK  119  A    between atoms: _286  and  _287
REMARK  120  A    between atoms: _292  and  _294
REMARK  121  A    between atoms: _294  and  _295
REMARK  122  A    between atoms: _294  and  _297
REMARK  123  A    between atoms: _297  and  _298
REMARK  124  A    between atoms: _298  and  _299
REMARK  125  A    between atoms: _299  and  _300
REMARK  126  A    between atoms: _302  and  _303
REMARK  127  A    between atoms: _309  and  _311
REMARK  128  A    between atoms: _311  and  _312
REMARK  129  A    between atoms: _311  and  _314
REMARK  130  A    between atoms: _314  and  _315
REMARK  131  A    between atoms: _318  and  _320
REMARK  132  A    between atoms: _320  and  _321
REMARK  133  A    between atoms: _320  and  _323
REMARK  134  A    between atoms: _323  and  _324
REMARK  135  A    between atoms: _327  and  _329
REMARK  136  A    between atoms: _329  and  _330
REMARK  137  A    between atoms: _329  and  _332
REMARK  138  A    between atoms: _332  and  _333
REMARK  139  A    between atoms: _336  and  _338
REMARK  140  A    between atoms: _338  and  _339
REMARK  141  A    between atoms: _338  and  _341
REMARK  142  A    between atoms: _341  and  _342
REMARK  143  A    between atoms: _345  and  _347
REMARK  144  A    between atoms: _347  and  _348
REMARK  145  A    between atoms: _350  and  _352
REMARK  146  A    between atoms: _352  and  _353
REMARK  147  A    between atoms: _356  and  _358
REMARK  148  A    between atoms: _358  and  _359
REMARK  149  A    between atoms: _358  and  _361
REMARK  150  A    between atoms: _361  and  _362
REMARK  151  A    between atoms: _365  and  _367
REMARK  152  A    between atoms: _367  and  _368
REMARK  153  A    between atoms: _367  and  _370
REMARK  154  A    between atoms: _370  and  _371
REMARK  155  A    between atoms: _374  and  _376
REMARK  156  A    between atoms: _376  and  _377
REMARK  157  A    between atoms: _376  and  _379
REMARK  158  A    between atoms: _379  and  _380
REMARK  159  A    between atoms: _383  and  _385
REMARK  160  A    between atoms: _385  and  _386
REMARK  161  A    between atoms: _385  and  _388
REMARK  162  A    between atoms: _391  and  _393
REMARK  163  A    between atoms: _393  and  _394
REMARK  164  A    between atoms: _393  and  _396
REMARK  165  A    between atoms: _396  and  _397
REMARK  166  A    between atoms: _397  and  _398
REMARK  167  A    between atoms: _398  and  _399
REMARK  168  A    between atoms: _399  and  _400
REMARK  169  A    between atoms: _404  and  _406
REMARK  170  A    between atoms: _406  and  _407
REMARK  171  A    between atoms: _406  and  _409
REMARK  172  A    between atoms: _409  and  _410
REMARK  173  A    between atoms: _410  and  _411
REMARK  174  A    between atoms: _413  and  _415
REMARK  175  A    between atoms: _415  and  _416
REMARK  176  A    between atoms: _415  and  _418
REMARK  177  A    between atoms: _418  and  _419
REMARK  178  A    between atoms: _422  and  _424
REMARK  179  A    between atoms: _424  and  _425
REMARK  180  A    between atoms: _427  and  _429
REMARK  181  A    between atoms: _429  and  _430
REMARK  182  A    between atoms: _432  and  _434
REMARK  183  A    between atoms: _434  and  _435
REMARK  184  A    between atoms: _434  and  _437
REMARK  185  A    between atoms: _440  and  _442
REMARK  186  A    between atoms: _442  and  _443
REMARK  187  A    between atoms: _445  and  _447
REMARK  188  A    between atoms: _447  and  _448
REMARK  189  A    between atoms: _450  and  _452
REMARK  190  A    between atoms: _452  and  _453
REMARK  191  A    between atoms: _452  and  _455
REMARK  192  A    between atoms: _455  and  _456
REMARK  193  A    between atoms: _462  and  _464
REMARK  194  A    between atoms: _464  and  _465
REMARK  195  A    between atoms: _464  and  _467
REMARK  196  A    between atoms: _467  and  _468
REMARK  197  A    between atoms: _471  and  _473
REMARK  198  A    between atoms: _473  and  _474
REMARK  199  A    between atoms: _473  and  _476
REMARK  200  A    between atoms: _479  and  _481
REMARK  201  A    between atoms: _481  and  _482
REMARK  202  A    between atoms: _481  and  _484
REMARK  203  A    between atoms: _484  and  _485
REMARK  204  A    between atoms: _489  and  _490
REMARK  205  A    between atoms: _495  and  _497
REMARK  206  A    between atoms: _497  and  _498
REMARK  207  A    between atoms: _497  and  _500
REMARK  208  A    between atoms: _500  and  _501
REMARK  209  A    between atoms: _505  and  _506
REMARK  210  A    between atoms: _511  and  _513
REMARK  211  A    between atoms: _513  and  _514
REMARK  212  A    between atoms: _513  and  _516
REMARK  213  A    between atoms: _519  and  _521
REMARK  214  A    between atoms: _521  and  _522
REMARK  215  A    between atoms: _521  and  _524
REMARK  216  A    between atoms: _524  and  _525
REMARK  217  A    between atoms: _530  and  _532
REMARK  218  A    between atoms: _532  and  _533
REMARK  219  A    between atoms: _532  and  _535
REMARK  220  A    between atoms: _535  and  _536
REMARK  221  A    between atoms: _539  and  _541
REMARK  222  A    between atoms: _541  and  _542
REMARK  223  A    between atoms: _541  and  _544
REMARK  224  A    between atoms: _544  and  _545
REMARK  225  A    between atoms: _548  and  _550
REMARK  226  A    between atoms: _550  and  _551
REMARK  227  A    between atoms: _553  and  _555
REMARK  228  A    between atoms: _555  and  _556
REMARK  229  A    between atoms: _555  and  _558
REMARK  230  A    between atoms: _558  and  _559
REMARK  231  A    between atoms: _559  and  _560
REMARK  232  A    between atoms: _560  and  _561
REMARK  233  A    between atoms: _570  and  _572
REMARK  234  A    between atoms: _572  and  _573
REMARK  235  A    between atoms: _572  and  _575
REMARK  236  A    between atoms: _575  and  _576
REMARK                            x       y       z     vdW  Elec       q    Type
REMARK                         _______ _______ _______ _____ _____    ______ ____
ROOT
ATOM      1  O   HOH     1       4.991  16.203  21.769  0.00  0.00    +0.000 OA
ENDROOT
TORSDOF 0
REMARK  Name = ../refined-set-2016/2avq/2avq_pocket.pdb
REMARK  236 active torsions:
REMARK  status: ('A' for Active; 'I' for Inactive)
REMARK    1  A    between atoms: _1  and  _3
REMARK    2  A    between atoms: _3  and  _4
REMARK    3  A    between atoms: _3  and  _6
REMARK    4  A    between atoms: _6  and  _7
REMARK    5  A    between atoms: _7  and  _8
REMARK    6  A    between atoms: _8  and  _9
REMARK    7  A    between atoms: _18  and  _20
REMARK    8  A    between atoms: _20  and  _21
REMARK    9  A    between atoms: _20  and  _23
REMARK   10  A    between atoms: _23  and  _24
REMARK   11  A    between atoms: _27  and  _29
REMARK   12  A    between atoms: _29  and  _30
REMARK   13  A    between atoms: _29  and  _32
REMARK   14  A    between atoms: _32  and  _33
REMARK   15  A    between atoms: _36  and  _38
REMARK   16  A    between atoms: _38  and  _39
REMARK   17  A    between atoms: _38  and  _41
REMARK   18  A    between atoms: _41  and  _42
REMARK   19  A    between atoms: _45  and  _47
REMARK   20  A    between atoms: _47  and  _48
REMARK   21  A    between atoms: _47  and  _50
REMARK   22  A    between atoms: _50  and  _51
REMARK   23  A    between atoms: _54  and  _56
REMARK   24  A    between atoms: _56  and  _57
REMARK   25  A    between atoms: _56  and  _59
REMARK   26  A    between atoms: _59  and  _60
REMARK   27  A    between atoms: _63  and  _65
REMARK   28  A    between atoms: _65  and  _66
REMARK   29  A    between atoms: _68  and  _70
REMARK   30  A    between atoms: _70  and  _71
REMARK   31  A    between atoms: _74  and  _76
REMARK   32  A    between atoms: _76  and  _77
REMARK   33  A    between atoms: _76  and  _79
REMARK   34  A    between atoms: _79  and  _80
REMARK   35  A    between atoms: _83  and  _85
REMARK   36  A    between atoms: _85  and  _86
REMARK   37  A    between atoms: _85  and  _88
REMARK   38  A    between atoms: _88  and  _89
REMARK   39  A    between atoms: _92  and  _94
REMARK   40  A    between atoms: _94  and  _95
REMARK   41  A    between atoms: _94  and  _97
REMARK   42  A    between atoms: _97  and  _98
REMARK   43  A    between atoms: _101  and  _103
REMARK   44  A    between atoms: _103  and  _104
REMARK   45  A    between atoms: _103  and  _106
REMARK   46  A    between atoms: _109  and  _111
REMARK   47  A    between atoms: _111  and  _112
REMARK   48  A    between atoms: _111  and  _114
REMARK   49  A    between atoms: _114  and  _115
REMARK   50  A    between atoms: _115  and  _116
REMARK   51  A    between atoms: _116  and  _117
REMARK   52  A    between atoms: _117  and  _118
REMARK   53  A    between atoms: _122  and  _124
REMARK   54  A    between atoms: _124  and  _125
REMARK   55  A    between atoms: _124  and  _127
REMARK   56  A    between atoms: _127  and  _128
REMARK   57  A    between atoms: _128  and  _129
REMARK   58  A    between atoms: _131  and  _133
REMARK   59  A    between atoms: _133  and  _134
REMARK   60  A    between atoms: _133  and  _136
REMARK   61  A    between atoms: _136  and  _137
REMARK   62  A    between atoms: _140  and  _142
REMARK   63  A    between atoms: _142  and  _143
REMARK   64  A    between atoms: _145  and  _147
REMARK   65  A    between atoms: _147  and  _148
REMARK   66  A    between atoms: _150  and  _152
REMARK   67  A    between atoms: _152  and  _153
REMARK   68  A    between atoms: _152  and  _155
REMARK   69  A    between atoms: _158  and  _160
REMARK   70  A    between atoms: _160  and  _161
REMARK   71  A    between atoms: _163  and  _165
REMARK   72  A    between atoms: _165  and  _166
REMARK   73  A    between atoms: _168  and  _170
REMARK   74  A    between atoms: _170  and  _171
REMARK   75  A    between atoms: _170  and  _173
REMARK   76  A    between atoms: _173  and  _174
REMARK   77  A    between atoms: _180  and  _182
REMARK   78  A    between atoms: _182  and  _183
REMARK   79  A    between atoms: _182  and  _185
REMARK   80  A    between atoms: _185  and  _186
REMARK   81  A    between atoms: _189  and  _191
REMARK   82  A    between atoms: _191  and  _192
REMARK   83  A    between atoms: _191  and  _194
REMARK   84  A    between atoms: _197  and  _199
REMARK   85  A    between atoms: _199  and  _200
REMARK   86  A    between atoms: _199  and  _202
REMARK   87  A    between atoms: _202  and  _203
REMARK   88  A    between atoms: _206  and  _208
REMARK   89  A    between atoms: _208  and  _209
REMARK   90  A    between atoms: _208  and  _211
REMARK   91  A    between atoms: _211  and  _212
REMARK   92  A    between atoms: _216  and  _217
REMARK   93  A    between atoms: _222  and  _224
REMARK   94  A    between atoms: _224  and  _225
REMARK   95  A    between atoms: _224  and  _227
REMARK   96  A    between atoms: _230  and  _232
REMARK   97  A    between atoms: _232  and  _233
REMARK   98  A    between atoms: _232  and  _235
REMARK   99  A    between atoms: _235  and  _236
REMARK  100  A    between atoms: _241  and  _243
REMARK  101  A    between atoms: _243  and  _244
REMARK  102  A    between atoms: _243  and  _246
REMARK  103  A    between atoms: _246  and  _247
REMARK  104  A    between atoms: _250  and  _252
REMARK  105  A    between atoms: _252  and  _253
REMARK  106  A    between atoms: _252  and  _255
REMARK  107  A    between atoms: _255  and  _256
REMARK  108  A    between atoms: _259  and  _261
REMARK  109  A    between atoms: _261  and  _262
REMARK  110  A    between atoms: _264  and  _266
REMARK  111  A    between atoms: _266  and  _267
REMARK  112  A    between atoms: _266  and  _269
REMARK  113  A    between atoms: _269  and  _270
REMARK  114  A    between atoms: _270  and  _271
REMARK  115  A    between atoms: _271  and  _272
REMARK  116  A    between atoms: _281  and  _283
REMARK  117  A    between atoms: _283  and  _284
REMARK  118  A    between atoms: _283  and  _286
REMARK  119  A    between atoms: _286  and  _287
REMARK  120  A    between atoms: _292  and  _294
REMARK  121  A    between atoms: _294  and  _295
REMARK  122  A    between atoms: _294  and  _297
REMARK  123  A    between atoms: _297  and  _298
REMARK  124  A    between atoms: _298  and  _299
REMARK  125  A    between atoms: _299  and  _300
REMARK  126  A    between atoms: _302  and  _303
REMARK  127  A    between atoms: _309  and  _311
REMARK  128  A    between atoms: _311  and  _312
REMARK  129  A    between atoms: _311  and  _314
REMARK  130  A    between atoms: _314  and  _315
REMARK  131  A    between atoms: _318  and  _320
REMARK  132  A    between atoms: _320  and  _321
REMARK  133  A    between atoms: _320  and  _323
REMARK  134  A    between atoms: _323  and  _324
REMARK  135  A    between atoms: _327  and  _329
REMARK  136  A    between atoms: _329  and  _330
REMARK  137  A    between atoms: _329  and  _332
REMARK  138  A    between atoms: _332  and  _333
REMARK  139  A    between atoms: _336  and  _338
REMARK  140  A    between atoms: _338  and  _339
REMARK  141  A    between atoms: _338  and  _341
REMARK  142  A    between atoms: _341  and  _342
REMARK  143  A    between atoms: _345  and  _347
REMARK  144  A    between atoms: _347  and  _348
REMARK  145  A    between atoms: _350  and  _352
REMARK  146  A    between atoms: _352  and  _353
REMARK  147  A    between atoms: _356  and  _358
REMARK  148  A    between atoms: _358  and  _359
REMARK  149  A    between atoms: _358  and  _361
REMARK  150  A    between atoms: _361  and  _362
REMARK  151  A    between atoms: _365  and  _367
REMARK  152  A    between atoms: _367  and  _368
REMARK  153  A    between atoms: _367  and  _370
REMARK  154  A    between atoms: _370  and  _371
REMARK  155  A    between atoms: _374  and  _376
REMARK  156  A    between atoms: _376  and  _377
REMARK  157  A    between atoms: _376  and  _379
REMARK  158  A    between atoms: _379  and  _380
REMARK  159  A    between atoms: _383  and  _385
REMARK  160  A    between atoms: _385  and  _386
REMARK  161  A    between atoms: _385  and  _388
REMARK  162  A    between atoms: _391  and  _393
REMARK  163  A    between atoms: _393  and  _394
REMARK  164  A    between atoms: _393  and  _396
REMARK  165  A    between atoms: _396  and  _397
REMARK  166  A    between atoms: _397  and  _398
REMARK  167  A    between atoms: _398  and  _399
REMARK  168  A    between atoms: _399  and  _400
REMARK  169  A    between atoms: _404  and  _406
REMARK  170  A    between atoms: _406  and  _407
REMARK  171  A    between atoms: _406  and  _409
REMARK  172  A    between atoms: _409  and  _410
REMARK  173  A    between atoms: _410  and  _411
REMARK  174  A    between atoms: _413  and  _415
REMARK  175  A    between atoms: _415  and  _416
REMARK  176  A    between atoms: _415  and  _418
REMARK  177  A    between atoms: _418  and  _419
REMARK  178  A    between atoms: _422  and  _424
REMARK  179  A    between atoms: _424  and  _425
REMARK  180  A    between atoms: _427  and  _429
REMARK  181  A    between atoms: _429  and  _430
REMARK  182  A    between atoms: _432  and  _434
REMARK  183  A    between atoms: _434  and  _435
REMARK  184  A    between atoms: _434  and  _437
REMARK  185  A    between atoms: _440  and  _442
REMARK  186  A    between atoms: _442  and  _443
REMARK  187  A    between atoms: _445  and  _447
REMARK  188  A    between atoms: _447  and  _448
REMARK  189  A    between atoms: _450  and  _452
REMARK  190  A    between atoms: _452  and  _453
REMARK  191  A    between atoms: _452  and  _455
REMARK  192  A    between atoms: _455  and  _456
REMARK  193  A    between atoms: _462  and  _464
REMARK  194  A    between atoms: _464  and  _465
REMARK  195  A    between atoms: _464  and  _467
REMARK  196  A    between atoms: _467  and  _468
REMARK  197  A    between atoms: _471  and  _473
REMARK  198  A    between atoms: _473  and  _474
REMARK  199  A    between atoms: _473  and  _476
REMARK  200  A    between atoms: _479  and  _481
REMARK  201  A    between atoms: _481  and  _482
REMARK  202  A    between atoms: _481  and  _484
REMARK  203  A    between atoms: _484  and  _485
REMARK  204  A    between atoms: _489  and  _490
REMARK  205  A    between atoms: _495  and  _497
REMARK  206  A    between atoms: _497  and  _498
REMARK  207  A    between atoms: _497  and  _500
REMARK  208  A    between atoms: _500  and  _501
REMARK  209  A    between atoms: _505  and  _506
REMARK  210  A    between atoms: _511  and  _513
REMARK  211  A    between atoms: _513  and  _514
REMARK  212  A    between atoms: _513  and  _516
REMARK  213  A    between atoms: _519  and  _521
REMARK  214  A    between atoms: _521  and  _522
REMARK  215  A    between atoms: _521  and  _524
REMARK  216  A    between atoms: _524  and  _525
REMARK  217  A    between atoms: _530  and  _532
REMARK  218  A    between atoms: _532  and  _533
REMARK  219  A    between atoms: _532  and  _535
REMARK  220  A    between atoms: _535  and  _536
REMARK  221  A    between atoms: _539  and  _541
REMARK  222  A    between atoms: _541  and  _542
REMARK  223  A    between atoms: _541  and  _544
REMARK  224  A    between atoms: _544  and  _545
REMARK  225  A    between atoms: _548  and  _550
REMARK  226  A    between atoms: _550  and  _551
REMARK  227  A    between atoms: _553  and  _555
REMARK  228  A    between atoms: _555  and  _556
REMARK  229  A    between atoms: _555  and  _558
REMARK  230  A    between atoms: _558  and  _559
REMARK  231  A    between atoms: _559  and  _560
REMARK  232  A    between atoms: _560  and  _561
REMARK  233  A    between atoms: _570  and  _572
REMARK  234  A    between atoms: _572  and  _573
REMARK  235  A    between atoms: _572  and  _575
REMARK  236  A    between atoms: _575  and  _576
REMARK                            x       y       z     vdW  Elec       q    Type
REMARK                         _______ _______ _______ _____ _____    ______ ____
ROOT
ATOM      1  O   HOH     1      29.652  24.324  18.849  0.00  0.00    +0.000 OA
ENDROOT
TORSDOF 0
REMARK  Name = ../refined-set-2016/2avq/2avq_pocket.pdb
REMARK  236 active torsions:
REMARK  status: ('A' for Active; 'I' for Inactive)
REMARK    1  A    between atoms: _1  and  _3
REMARK    2  A    between atoms: _3  and  _4
REMARK    3  A    between atoms: _3  and  _6
REMARK    4  A    between atoms: _6  and  _7
REMARK    5  A    between atoms: _7  and  _8
REMARK    6  A    between atoms: _8  and  _9
REMARK    7  A    between atoms: _18  and  _20
REMARK    8  A    between atoms: _20  and  _21
REMARK    9  A    between atoms: _20  and  _23
REMARK   10  A    between atoms: _23  and  _24
REMARK   11  A    between atoms: _27  and  _29
REMARK   12  A    between atoms: _29  and  _30
REMARK   13  A    between atoms: _29  and  _32
REMARK   14  A    between atoms: _32  and  _33
REMARK   15  A    between atoms: _36  and  _38
REMARK   16  A    between atoms: _38  and  _39
REMARK   17  A    between atoms: _38  and  _41
REMARK   18  A    between atoms: _41  and  _42
REMARK   19  A    between atoms: _45  and  _47
REMARK   20  A    between atoms: _47  and  _48
REMARK   21  A    between atoms: _47  and  _50
REMARK   22  A    between atoms: _50  and  _51
REMARK   23  A    between atoms: _54  and  _56
REMARK   24  A    between atoms: _56  and  _57
REMARK   25  A    between atoms: _56  and  _59
REMARK   26  A    between atoms: _59  and  _60
REMARK   27  A    between atoms: _63  and  _65
REMARK   28  A    between atoms: _65  and  _66
REMARK   29  A    between atoms: _68  and  _70
REMARK   30  A    between atoms: _70  and  _71
REMARK   31  A    between atoms: _74  and  _76
REMARK   32  A    between atoms: _76  and  _77
REMARK   33  A    between atoms: _76  and  _79
REMARK   34  A    between atoms: _79  and  _80
REMARK   35  A    between atoms: _83  and  _85
REMARK   36  A    between atoms: _85  and  _86
REMARK   37  A    between atoms: _85  and  _88
REMARK   38  A    between atoms: _88  and  _89
REMARK   39  A    between atoms: _92  and  _94
REMARK   40  A    between atoms: _94  and  _95
REMARK   41  A    between atoms: _94  and  _97
REMARK   42  A    between atoms: _97  and  _98
REMARK   43  A    between atoms: _101  and  _103
REMARK   44  A    between atoms: _103  and  _104
REMARK   45  A    between atoms: _103  and  _106
REMARK   46  A    between atoms: _109  and  _111
REMARK   47  A    between atoms: _111  and  _112
REMARK   48  A    between atoms: _111  and  _114
REMARK   49  A    between atoms: _114  and  _115
REMARK   50  A    between atoms: _115  and  _116
REMARK   51  A    between atoms: _116  and  _117
REMARK   52  A    between atoms: _117  and  _118
REMARK   53  A    between atoms: _122  and  _124
REMARK   54  A    between atoms: _124  and  _125
REMARK   55  A    between atoms: _124  and  _127
REMARK   56  A    between atoms: _127  and  _128
REMARK   57  A    between atoms: _128  and  _129
REMARK   58  A    between atoms: _131  and  _133
REMARK   59  A    between atoms: _133  and  _134
REMARK   60  A    between atoms: _133  and  _136
REMARK   61  A    between atoms: _136  and  _137
REMARK   62  A    between atoms: _140  and  _142
REMARK   63  A    between atoms: _142  and  _143
REMARK   64  A    between atoms: _145  and  _147
REMARK   65  A    between atoms: _147  and  _148
REMARK   66  A    between atoms: _150  and  _152
REMARK   67  A    between atoms: _152  and  _153
REMARK   68  A    between atoms: _152  and  _155
REMARK   69  A    between atoms: _158  and  _160
REMARK   70  A    between atoms: _160  and  _161
REMARK   71  A    between atoms: _163  and  _165
REMARK   72  A    between atoms: _165  and  _166
REMARK   73  A    between atoms: _168  and  _170
REMARK   74  A    between atoms: _170  and  _171
REMARK   75  A    between atoms: _170  and  _173
REMARK   76  A    between atoms: _173  and  _174
REMARK   77  A    between atoms: _180  and  _182
REMARK   78  A    between atoms: _182  and  _183
REMARK   79  A    between atoms: _182  and  _185
REMARK   80  A    between atoms: _185  and  _186
REMARK   81  A    between atoms: _189  and  _191
REMARK   82  A    between atoms: _191  and  _192
REMARK   83  A    between atoms: _191  and  _194
REMARK   84  A    between atoms: _197  and  _199
REMARK   85  A    between atoms: _199  and  _200
REMARK   86  A    between atoms: _199  and  _202
REMARK   87  A    between atoms: _202  and  _203
REMARK   88  A    between atoms: _206  and  _208
REMARK   89  A    between atoms: _208  and  _209
REMARK   90  A    between atoms: _208  and  _211
REMARK   91  A    between atoms: _211  and  _212
REMARK   92  A    between atoms: _216  and  _217
REMARK   93  A    between atoms: _222  and  _224
REMARK   94  A    between atoms: _224  and  _225
REMARK   95  A    between atoms: _224  and  _227
REMARK   96  A    between atoms: _230  and  _232
REMARK   97  A    between atoms: _232  and  _233
REMARK   98  A    between atoms: _232  and  _235
REMARK   99  A    between atoms: _235  and  _236
REMARK  100  A    between atoms: _241  and  _243
REMARK  101  A    between atoms: _243  and  _244
REMARK  102  A    between atoms: _243  and  _246
REMARK  103  A    between atoms: _246  and  _247
REMARK  104  A    between atoms: _250  and  _252
REMARK  105  A    between atoms: _252  and  _253
REMARK  106  A    between atoms: _252  and  _255
REMARK  107  A    between atoms: _255  and  _256
REMARK  108  A    between atoms: _259  and  _261
REMARK  109  A    between atoms: _261  and  _262
REMARK  110  A    between atoms: _264  and  _266
REMARK  111  A    between atoms: _266  and  _267
REMARK  112  A    between atoms: _266  and  _269
REMARK  113  A    between atoms: _269  and  _270
REMARK  114  A    between atoms: _270  and  _271
REMARK  115  A    between atoms: _271  and  _272
REMARK  116  A    between atoms: _281  and  _283
REMARK  117  A    between atoms: _283  and  _284
REMARK  118  A    between atoms: _283  and  _286
REMARK  119  A    between atoms: _286  and  _287
REMARK  120  A    between atoms: _292  and  _294
REMARK  121  A    between atoms: _294  and  _295
REMARK  122  A    between atoms: _294  and  _297
REMARK  123  A    between atoms: _297  and  _298
REMARK  124  A    between atoms: _298  and  _299
REMARK  125  A    between atoms: _299  and  _300
REMARK  126  A    between atoms: _302  and  _303
REMARK  127  A    between atoms: _309  and  _311
REMARK  128  A    between atoms: _311  and  _312
REMARK  129  A    between atoms: _311  and  _314
REMARK  130  A    between atoms: _314  and  _315
REMARK  131  A    between atoms: _318  and  _320
REMARK  132  A    between atoms: _320  and  _321
REMARK  133  A    between atoms: _320  and  _323
REMARK  134  A    between atoms: _323  and  _324
REMARK  135  A    between atoms: _327  and  _329
REMARK  136  A    between atoms: _329  and  _330
REMARK  137  A    between atoms: _329  and  _332
REMARK  138  A    between atoms: _332  and  _333
REMARK  139  A    between atoms: _336  and  _338
REMARK  140  A    between atoms: _338  and  _339
REMARK  141  A    between atoms: _338  and  _341
REMARK  142  A    between atoms: _341  and  _342
REMARK  143  A    between atoms: _345  and  _347
REMARK  144  A    between atoms: _347  and  _348
REMARK  145  A    between atoms: _350  and  _352
REMARK  146  A    between atoms: _352  and  _353
REMARK  147  A    between atoms: _356  and  _358
REMARK  148  A    between atoms: _358  and  _359
REMARK  149  A    between atoms: _358  and  _361
REMARK  150  A    between atoms: _361  and  _362
REMARK  151  A    between atoms: _365  and  _367
REMARK  152  A    between atoms: _367  and  _368
REMARK  153  A    between atoms: _367  and  _370
REMARK  154  A    between atoms: _370  and  _371
REMARK  155  A    between atoms: _374  and  _376
REMARK  156  A    between atoms: _376  and  _377
REMARK  157  A    between atoms: _376  and  _379
REMARK  158  A    between atoms: _379  and  _380
REMARK  159  A    between atoms: _383  and  _385
REMARK  160  A    between atoms: _385  and  _386
REMARK  161  A    between atoms: _385  and  _388
REMARK  162  A    between atoms: _391  and  _393
REMARK  163  A    between atoms: _393  and  _394
REMARK  164  A    between atoms: _393  and  _396
REMARK  165  A    between atoms: _396  and  _397
REMARK  166  A    between atoms: _397  and  _398
REMARK  167  A    between atoms: _398  and  _399
REMARK  168  A    between atoms: _399  and  _400
REMARK  169  A    between atoms: _404  and  _406
REMARK  170  A    between atoms: _406  and  _407
REMARK  171  A    between atoms: _406  and  _409
REMARK  172  A    between atoms: _409  and  _410
REMARK  173  A    between atoms: _410  and  _411
REMARK  174  A    between atoms: _413  and  _415
REMARK  175  A    between atoms: _415  and  _416
REMARK  176  A    between atoms: _415  and  _418
REMARK  177  A    between atoms: _418  and  _419
REMARK  178  A    between atoms: _422  and  _424
REMARK  179  A    between atoms: _424  and  _425
REMARK  180  A    between atoms: _427  and  _429
REMARK  181  A    between atoms: _429  and  _430
REMARK  182  A    between atoms: _432  and  _434
REMARK  183  A    between atoms: _434  and  _435
REMARK  184  A    between atoms: _434  and  _437
REMARK  185  A    between atoms: _440  and  _442
REMARK  186  A    between atoms: _442  and  _443
REMARK  187  A    between atoms: _445  and  _447
REMARK  188  A    between atoms: _447  and  _448
REMARK  189  A    between atoms: _450  and  _452
REMARK  190  A    between atoms: _452  and  _453
REMARK  191  A    between atoms: _452  and  _455
REMARK  192  A    between atoms: _455  and  _456
REMARK  193  A    between atoms: _462  and  _464
REMARK  194  A    between atoms: _464  and  _465
REMARK  195  A    between atoms: _464  and  _467
REMARK  196  A    between atoms: _467  and  _468
REMARK  197  A    between atoms: _471  and  _473
REMARK  198  A    between atoms: _473  and  _474
REMARK  199  A    between atoms: _473  and  _476
REMARK  200  A    between atoms: _479  and  _481
REMARK  201  A    between atoms: _481  and  _482
REMARK  202  A    between atoms: _481  and  _484
REMARK  203  A    between atoms: _484  and  _485
REMARK  204  A    between atoms: _489  and  _490
REMARK  205  A    between atoms: _495  and  _497
REMARK  206  A    between atoms: _497  and  _498
REMARK  207  A    between atoms: _497  and  _500
REMARK  208  A    between atoms: _500  and  _501
REMARK  209  A    between atoms: _505  and  _506
REMARK  210  A    between atoms: _511  and  _513
REMARK  211  A    between atoms: _513  and  _514
REMARK  212  A    between atoms: _513  and  _516
REMARK  213  A    between atoms: _519  and  _521
REMARK  214  A    between atoms: _521  and  _522
REMARK  215  A    between atoms: _521  and  _524
REMARK  216  A    between atoms: _524  and  _525
REMARK  217  A    between atoms: _530  and  _532
REMARK  218  A    between atoms: _532  and  _533
REMARK  219  A    between atoms: _532  and  _535
REMARK  220  A    between atoms: _535  and  _536
REMARK  221  A    between atoms: _539  and  _541
REMARK  222  A    between atoms: _541  and  _542
REMARK  223  A    between atoms: _541  and  _544
REMARK  224  A    between atoms: _544  and  _545
REMARK  225  A    between atoms: _548  and  _550
REMARK  226  A    between atoms: _550  and  _551
REMARK  227  A    between atoms: _553  and  _555
REMARK  228  A    between atoms: _555  and  _556
REMARK  229  A    between atoms: _555  and  _558
REMARK  230  A    between atoms: _558  and  _559
REMARK  231  A    between atoms: _559  and  _560
REMARK  232  A    between atoms: _560  and  _561
REMARK  233  A    between atoms: _570  and  _572
REMARK  234  A    between atoms: _572  and  _573
REMARK  235  A    between atoms: _572  and  _575
REMARK  236  A    between atoms: _575  and  _576
REMARK                            x       y       z     vdW  Elec       q    Type
REMARK                         _______ _______ _______ _____ _____    ______ ____
ROOT
ATOM      1  O   HOH     1       7.625  10.245  19.204  0.00  0.00    +0.000 OA
ENDROOT
TORSDOF 0
REMARK  Name = ../refined-set-2016/2avq/2avq_pocket.pdb
REMARK  236 active torsions:
REMARK  status: ('A' for Active; 'I' for Inactive)
REMARK    1  A    between atoms: _1  and  _3
REMARK    2  A    between atoms: _3  and  _4
REMARK    3  A    between atoms: _3  and  _6
REMARK    4  A    between atoms: _6  and  _7
REMARK    5  A    between atoms: _7  and  _8
REMARK    6  A    between atoms: _8  and  _9
REMARK    7  A    between atoms: _18  and  _20
REMARK    8  A    between atoms: _20  and  _21
REMARK    9  A    between atoms: _20  and  _23
REMARK   10  A    between atoms: _23  and  _24
REMARK   11  A    between atoms: _27  and  _29
REMARK   12  A    between atoms: _29  and  _30
REMARK   13  A    between atoms: _29  and  _32
REMARK   14  A    between atoms: _32  and  _33
REMARK   15  A    between atoms: _36  and  _38
REMARK   16  A    between atoms: _38  and  _39
REMARK   17  A    between atoms: _38  and  _41
REMARK   18  A    between atoms: _41  and  _42
REMARK   19  A    between atoms: _45  and  _47
REMARK   20  A    between atoms: _47  and  _48
REMARK   21  A    between atoms: _47  and  _50
REMARK   22  A    between atoms: _50  and  _51
REMARK   23  A    between atoms: _54  and  _56
REMARK   24  A    between atoms: _56  and  _57
REMARK   25  A    between atoms: _56  and  _59
REMARK   26  A    between atoms: _59  and  _60
REMARK   27  A    between atoms: _63  and  _65
REMARK   28  A    between atoms: _65  and  _66
REMARK   29  A    between atoms: _68  and  _70
REMARK   30  A    between atoms: _70  and  _71
REMARK   31  A    between atoms: _74  and  _76
REMARK   32  A    between atoms: _76  and  _77
REMARK   33  A    between atoms: _76  and  _79
REMARK   34  A    between atoms: _79  and  _80
REMARK   35  A    between atoms: _83  and  _85
REMARK   36  A    between atoms: _85  and  _86
REMARK   37  A    between atoms: _85  and  _88
REMARK   38  A    between atoms: _88  and  _89
REMARK   39  A    between atoms: _92  and  _94
REMARK   40  A    between atoms: _94  and  _95
REMARK   41  A    between atoms: _94  and  _97
REMARK   42  A    between atoms: _97  and  _98
REMARK   43  A    between atoms: _101  and  _103
REMARK   44  A    between atoms: _103  and  _104
REMARK   45  A    between atoms: _103  and  _106
REMARK   46  A    between atoms: _109  and  _111
REMARK   47  A    between atoms: _111  and  _112
REMARK   48  A    between atoms: _111  and  _114
REMARK   49  A    between atoms: _114  and  _115
REMARK   50  A    between atoms: _115  and  _116
REMARK   51  A    between atoms: _116  and  _117
REMARK   52  A    between atoms: _117  and  _118
REMARK   53  A    between atoms: _122  and  _124
REMARK   54  A    between atoms: _124  and  _125
REMARK   55  A    between atoms: _124  and  _127
REMARK   56  A    between atoms: _127  and  _128
REMARK   57  A    between atoms: _128  and  _129
REMARK   58  A    between atoms: _131  and  _133
REMARK   59  A    between atoms: _133  and  _134
REMARK   60  A    between atoms: _133  and  _136
REMARK   61  A    between atoms: _136  and  _137
REMARK   62  A    between atoms: _140  and  _142
REMARK   63  A    between atoms: _142  and  _143
REMARK   64  A    between atoms: _145  and  _147
REMARK   65  A    between atoms: _147  and  _148
REMARK   66  A    between atoms: _150  and  _152
REMARK   67  A    between atoms: _152  and  _153
REMARK   68  A    between atoms: _152  and  _155
REMARK   69  A    between atoms: _158  and  _160
REMARK   70  A    between atoms: _160  and  _161
REMARK   71  A    between atoms: _163  and  _165
REMARK   72  A    between atoms: _165  and  _166
REMARK   73  A    between atoms: _168  and  _170
REMARK   74  A    between atoms: _170  and  _171
REMARK   75  A    between atoms: _170  and  _173
REMARK   76  A    between atoms: _173  and  _174
REMARK   77  A    between atoms: _180  and  _182
REMARK   78  A    between atoms: _182  and  _183
REMARK   79  A    between atoms: _182  and  _185
REMARK   80  A    between atoms: _185  and  _186
REMARK   81  A    between atoms: _189  and  _191
REMARK   82  A    between atoms: _191  and  _192
REMARK   83  A    between atoms: _191  and  _194
REMARK   84  A    between atoms: _197  and  _199
REMARK   85  A    between atoms: _199  and  _200
REMARK   86  A    between atoms: _199  and  _202
REMARK   87  A    between atoms: _202  and  _203
REMARK   88  A    between atoms: _206  and  _208
REMARK   89  A    between atoms: _208  and  _209
REMARK   90  A    between atoms: _208  and  _211
REMARK   91  A    between atoms: _211  and  _212
REMARK   92  A    between atoms: _216  and  _217
REMARK   93  A    between atoms: _222  and  _224
REMARK   94  A    between atoms: _224  and  _225
REMARK   95  A    between atoms: _224  and  _227
REMARK   96  A    between atoms: _230  and  _232
REMARK   97  A    between atoms: _232  and  _233
REMARK   98  A    between atoms: _232  and  _235
REMARK   99  A    between atoms: _235  and  _236
REMARK  100  A    between atoms: _241  and  _243
REMARK  101  A    between atoms: _243  and  _244
REMARK  102  A    between atoms: _243  and  _246
REMARK  103  A    between atoms: _246  and  _247
REMARK  104  A    between atoms: _250  and  _252
REMARK  105  A    between atoms: _252  and  _253
REMARK  106  A    between atoms: _252  and  _255
REMARK  107  A    between atoms: _255  and  _256
REMARK  108  A    between atoms: _259  and  _261
REMARK  109  A    between atoms: _261  and  _262
REMARK  110  A    between atoms: _264  and  _266
REMARK  111  A    between atoms: _266  and  _267
REMARK  112  A    between atoms: _266  and  _269
REMARK  113  A    between atoms: _269  and  _270
REMARK  114  A    between atoms: _270  and  _271
REMARK  115  A    between atoms: _271  and  _272
REMARK  116  A    between atoms: _281  and  _283
REMARK  117  A    between atoms: _283  and  _284
REMARK  118  A    between atoms: _283  and  _286
REMARK  119  A    between atoms: _286  and  _287
REMARK  120  A    between atoms: _292  and  _294
REMARK  121  A    between atoms: _294  and  _295
REMARK  122  A    between atoms: _294  and  _297
REMARK  123  A    between atoms: _297  and  _298
REMARK  124  A    between atoms: _298  and  _299
REMARK  125  A    between atoms: _299  and  _300
REMARK  126  A    between atoms: _302  and  _303
REMARK  127  A    between atoms: _309  and  _311
REMARK  128  A    between atoms: _311  and  _312
REMARK  129  A    between atoms: _311  and  _314
REMARK  130  A    between atoms: _314  and  _315
REMARK  131  A    between atoms: _318  and  _320
REMARK  132  A    between atoms: _320  and  _321
REMARK  133  A    between atoms: _320  and  _323
REMARK  134  A    between atoms: _323  and  _324
REMARK  135  A    between atoms: _327  and  _329
REMARK  136  A    between atoms: _329  and  _330
REMARK  137  A    between atoms: _329  and  _332
REMARK  138  A    between atoms: _332  and  _333
REMARK  139  A    between atoms: _336  and  _338
REMARK  140  A    between atoms: _338  and  _339
REMARK  141  A    between atoms: _338  and  _341
REMARK  142  A    between atoms: _341  and  _342
REMARK  143  A    between atoms: _345  and  _347
REMARK  144  A    between atoms: _347  and  _348
REMARK  145  A    between atoms: _350  and  _352
REMARK  146  A    between atoms: _352  and  _353
REMARK  147  A    between atoms: _356  and  _358
REMARK  148  A    between atoms: _358  and  _359
REMARK  149  A    between atoms: _358  and  _361
REMARK  150  A    between atoms: _361  and  _362
REMARK  151  A    between atoms: _365  and  _367
REMARK  152  A    between atoms: _367  and  _368
REMARK  153  A    between atoms: _367  and  _370
REMARK  154  A    between atoms: _370  and  _371
REMARK  155  A    between atoms: _374  and  _376
REMARK  156  A    between atoms: _376  and  _377
REMARK  157  A    between atoms: _376  and  _379
REMARK  158  A    between atoms: _379  and  _380
REMARK  159  A    between atoms: _383  and  _385
REMARK  160  A    between atoms: _385  and  _386
REMARK  161  A    between atoms: _385  and  _388
REMARK  162  A    between atoms: _391  and  _393
REMARK  163  A    between atoms: _393  and  _394
REMARK  164  A    between atoms: _393  and  _396
REMARK  165  A    between atoms: _396  and  _397
REMARK  166  A    between atoms: _397  and  _398
REMARK  167  A    between atoms: _398  and  _399
REMARK  168  A    between atoms: _399  and  _400
REMARK  169  A    between atoms: _404  and  _406
REMARK  170  A    between atoms: _406  and  _407
REMARK  171  A    between atoms: _406  and  _409
REMARK  172  A    between atoms: _409  and  _410
REMARK  173  A    between atoms: _410  and  _411
REMARK  174  A    between atoms: _413  and  _415
REMARK  175  A    between atoms: _415  and  _416
REMARK  176  A    between atoms: _415  and  _418
REMARK  177  A    between atoms: _418  and  _419
REMARK  178  A    between atoms: _422  and  _424
REMARK  179  A    between atoms: _424  and  _425
REMARK  180  A    between atoms: _427  and  _429
REMARK  181  A    between atoms: _429  and  _430
REMARK  182  A    between atoms: _432  and  _434
REMARK  183  A    between atoms: _434  and  _435
REMARK  184  A    between atoms: _434  and  _437
REMARK  185  A    between atoms: _440  and  _442
REMARK  186  A    between atoms: _442  and  _443
REMARK  187  A    between atoms: _445  and  _447
REMARK  188  A    between atoms: _447  and  _448
REMARK  189  A    between atoms: _450  and  _452
REMARK  190  A    between atoms: _452  and  _453
REMARK  191  A    between atoms: _452  and  _455
REMARK  192  A    between atoms: _455  and  _456
REMARK  193  A    between atoms: _462  and  _464
REMARK  194  A    between atoms: _464  and  _465
REMARK  195  A    between atoms: _464  and  _467
REMARK  196  A    between atoms: _467  and  _468
REMARK  197  A    between atoms: _471  and  _473
REMARK  198  A    between atoms: _473  and  _474
REMARK  199  A    between atoms: _473  and  _476
REMARK  200  A    between atoms: _479  and  _481
REMARK  201  A    between atoms: _481  and  _482
REMARK  202  A    between atoms: _481  and  _484
REMARK  203  A    between atoms: _484  and  _485
REMARK  204  A    between atoms: _489  and  _490
REMARK  205  A    between atoms: _495  and  _497
REMARK  206  A    between atoms: _497  and  _498
REMARK  207  A    between atoms: _497  and  _500
REMARK  208  A    between atoms: _500  and  _501
REMARK  209  A    between atoms: _505  and  _506
REMARK  210  A    between atoms: _511  and  _513
REMARK  211  A    between atoms: _513  and  _514
REMARK  212  A    between atoms: _513  and  _516
REMARK  213  A    between atoms: _519  and  _521
REMARK  214  A    between atoms: _521  and  _522
REMARK  215  A    between atoms: _521  and  _524
REMARK  216  A    between atoms: _524  and  _525
REMARK  217  A    between atoms: _530  and  _532
REMARK  218  A    between atoms: _532  and  _533
REMARK  219  A    between atoms: _532  and  _535
REMARK  220  A    between atoms: _535  and  _536
REMARK  221  A    between atoms: _539  and  _541
REMARK  222  A    between atoms: _541  and  _542
REMARK  223  A    between atoms: _541  and  _544
REMARK  224  A    between atoms: _544  and  _545
REMARK  225  A    between atoms: _548  and  _550
REMARK  226  A    between atoms: _550  and  _551
REMARK  227  A    between atoms: _553  and  _555
REMARK  228  A    between atoms: _555  and  _556
REMARK  229  A    between atoms: _555  and  _558
REMARK  230  A    between atoms: _558  and  _559
REMARK  231  A    between atoms: _559  and  _560
REMARK  232  A    between atoms: _560  and  _561
REMARK  233  A    between atoms: _570  and  _572
REMARK  234  A    between atoms: _572  and  _573
REMARK  235  A    between atoms: _572  and  _575
REMARK  236  A    between atoms: _575  and  _576
REMARK                            x       y       z     vdW  Elec       q    Type
REMARK                         _______ _______ _______ _____ _____    ______ ____
ROOT
ATOM      1  O   HOH     1       9.272  12.527  18.416  0.00  0.00    +0.000 OA
ENDROOT
TORSDOF 0
REMARK  Name = ../refined-set-2016/2avq/2avq_pocket.pdb
REMARK  236 active torsions:
REMARK  status: ('A' for Active; 'I' for Inactive)
REMARK    1  A    between atoms: _1  and  _3
REMARK    2  A    between atoms: _3  and  _4
REMARK    3  A    between atoms: _3  and  _6
REMARK    4  A    between atoms: _6  and  _7
REMARK    5  A    between atoms: _7  and  _8
REMARK    6  A    between atoms: _8  and  _9
REMARK    7  A    between atoms: _18  and  _20
REMARK    8  A    between atoms: _20  and  _21
REMARK    9  A    between atoms: _20  and  _23
REMARK   10  A    between atoms: _23  and  _24
REMARK   11  A    between atoms: _27  and  _29
REMARK   12  A    between atoms: _29  and  _30
REMARK   13  A    between atoms: _29  and  _32
REMARK   14  A    between atoms: _32  and  _33
REMARK   15  A    between atoms: _36  and  _38
REMARK   16  A    between atoms: _38  and  _39
REMARK   17  A    between atoms: _38  and  _41
REMARK   18  A    between atoms: _41  and  _42
REMARK   19  A    between atoms: _45  and  _47
REMARK   20  A    between atoms: _47  and  _48
REMARK   21  A    between atoms: _47  and  _50
REMARK   22  A    between atoms: _50  and  _51
REMARK   23  A    between atoms: _54  and  _56
REMARK   24  A    between atoms: _56  and  _57
REMARK   25  A    between atoms: _56  and  _59
REMARK   26  A    between atoms: _59  and  _60
REMARK   27  A    between atoms: _63  and  _65
REMARK   28  A    between atoms: _65  and  _66
REMARK   29  A    between atoms: _68  and  _70
REMARK   30  A    between atoms: _70  and  _71
REMARK   31  A    between atoms: _74  and  _76
REMARK   32  A    between atoms: _76  and  _77
REMARK   33  A    between atoms: _76  and  _79
REMARK   34  A    between atoms: _79  and  _80
REMARK   35  A    between atoms: _83  and  _85
REMARK   36  A    between atoms: _85  and  _86
REMARK   37  A    between atoms: _85  and  _88
REMARK   38  A    between atoms: _88  and  _89
REMARK   39  A    between atoms: _92  and  _94
REMARK   40  A    between atoms: _94  and  _95
REMARK   41  A    between atoms: _94  and  _97
REMARK   42  A    between atoms: _97  and  _98
REMARK   43  A    between atoms: _101  and  _103
REMARK   44  A    between atoms: _103  and  _104
REMARK   45  A    between atoms: _103  and  _106
REMARK   46  A    between atoms: _109  and  _111
REMARK   47  A    between atoms: _111  and  _112
REMARK   48  A    between atoms: _111  and  _114
REMARK   49  A    between atoms: _114  and  _115
REMARK   50  A    between atoms: _115  and  _116
REMARK   51  A    between atoms: _116  and  _117
REMARK   52  A    between atoms: _117  and  _118
REMARK   53  A    between atoms: _122  and  _124
REMARK   54  A    between atoms: _124  and  _125
REMARK   55  A    between atoms: _124  and  _127
REMARK   56  A    between atoms: _127  and  _128
REMARK   57  A    between atoms: _128  and  _129
REMARK   58  A    between atoms: _131  and  _133
REMARK   59  A    between atoms: _133  and  _134
REMARK   60  A    between atoms: _133  and  _136
REMARK   61  A    between atoms: _136  and  _137
REMARK   62  A    between atoms: _140  and  _142
REMARK   63  A    between atoms: _142  and  _143
REMARK   64  A    between atoms: _145  and  _147
REMARK   65  A    between atoms: _147  and  _148
REMARK   66  A    between atoms: _150  and  _152
REMARK   67  A    between atoms: _152  and  _153
REMARK   68  A    between atoms: _152  and  _155
REMARK   69  A    between atoms: _158  and  _160
REMARK   70  A    between atoms: _160  and  _161
REMARK   71  A    between atoms: _163  and  _165
REMARK   72  A    between atoms: _165  and  _166
REMARK   73  A    between atoms: _168  and  _170
REMARK   74  A    between atoms: _170  and  _171
REMARK   75  A    between atoms: _170  and  _173
REMARK   76  A    between atoms: _173  and  _174
REMARK   77  A    between atoms: _180  and  _182
REMARK   78  A    between atoms: _182  and  _183
REMARK   79  A    between atoms: _182  and  _185
REMARK   80  A    between atoms: _185  and  _186
REMARK   81  A    between atoms: _189  and  _191
REMARK   82  A    between atoms: _191  and  _192
REMARK   83  A    between atoms: _191  and  _194
REMARK   84  A    between atoms: _197  and  _199
REMARK   85  A    between atoms: _199  and  _200
REMARK   86  A    between atoms: _199  and  _202
REMARK   87  A    between atoms: _202  and  _203
REMARK   88  A    between atoms: _206  and  _208
REMARK   89  A    between atoms: _208  and  _209
REMARK   90  A    between atoms: _208  and  _211
REMARK   91  A    between atoms: _211  and  _212
REMARK   92  A    between atoms: _216  and  _217
REMARK   93  A    between atoms: _222  and  _224
REMARK   94  A    between atoms: _224  and  _225
REMARK   95  A    between atoms: _224  and  _227
REMARK   96  A    between atoms: _230  and  _232
REMARK   97  A    between atoms: _232  and  _233
REMARK   98  A    between atoms: _232  and  _235
REMARK   99  A    between atoms: _235  and  _236
REMARK  100  A    between atoms: _241  and  _243
REMARK  101  A    between atoms: _243  and  _244
REMARK  102  A    between atoms: _243  and  _246
REMARK  103  A    between atoms: _246  and  _247
REMARK  104  A    between atoms: _250  and  _252
REMARK  105  A    between atoms: _252  and  _253
REMARK  106  A    between atoms: _252  and  _255
REMARK  107  A    between atoms: _255  and  _256
REMARK  108  A    between atoms: _259  and  _261
REMARK  109  A    between atoms: _261  and  _262
REMARK  110  A    between atoms: _264  and  _266
REMARK  111  A    between atoms: _266  and  _267
REMARK  112  A    between atoms: _266  and  _269
REMARK  113  A    between atoms: _269  and  _270
REMARK  114  A    between atoms: _270  and  _271
REMARK  115  A    between atoms: _271  and  _272
REMARK  116  A    between atoms: _281  and  _283
REMARK  117  A    between atoms: _283  and  _284
REMARK  118  A    between atoms: _283  and  _286
REMARK  119  A    between atoms: _286  and  _287
REMARK  120  A    between atoms: _292  and  _294
REMARK  121  A    between atoms: _294  and  _295
REMARK  122  A    between atoms: _294  and  _297
REMARK  123  A    between atoms: _297  and  _298
REMARK  124  A    between atoms: _298  and  _299
REMARK  125  A    between atoms: _299  and  _300
REMARK  126  A    between atoms: _302  and  _303
REMARK  127  A    between atoms: _309  and  _311
REMARK  128  A    between atoms: _311  and  _312
REMARK  129  A    between atoms: _311  and  _314
REMARK  130  A    between atoms: _314  and  _315
REMARK  131  A    between atoms: _318  and  _320
REMARK  132  A    between atoms: _320  and  _321
REMARK  133  A    between atoms: _320  and  _323
REMARK  134  A    between atoms: _323  and  _324
REMARK  135  A    between atoms: _327  and  _329
REMARK  136  A    between atoms: _329  and  _330
REMARK  137  A    between atoms: _329  and  _332
REMARK  138  A    between atoms: _332  and  _333
REMARK  139  A    between atoms: _336  and  _338
REMARK  140  A    between atoms: _338  and  _339
REMARK  141  A    between atoms: _338  and  _341
REMARK  142  A    between atoms: _341  and  _342
REMARK  143  A    between atoms: _345  and  _347
REMARK  144  A    between atoms: _347  and  _348
REMARK  145  A    between atoms: _350  and  _352
REMARK  146  A    between atoms: _352  and  _353
REMARK  147  A    between atoms: _356  and  _358
REMARK  148  A    between atoms: _358  and  _359
REMARK  149  A    between atoms: _358  and  _361
REMARK  150  A    between atoms: _361  and  _362
REMARK  151  A    between atoms: _365  and  _367
REMARK  152  A    between atoms: _367  and  _368
REMARK  153  A    between atoms: _367  and  _370
REMARK  154  A    between atoms: _370  and  _371
REMARK  155  A    between atoms: _374  and  _376
REMARK  156  A    between atoms: _376  and  _377
REMARK  157  A    between atoms: _376  and  _379
REMARK  158  A    between atoms: _379  and  _380
REMARK  159  A    between atoms: _383  and  _385
REMARK  160  A    between atoms: _385  and  _386
REMARK  161  A    between atoms: _385  and  _388
REMARK  162  A    between atoms: _391  and  _393
REMARK  163  A    between atoms: _393  and  _394
REMARK  164  A    between atoms: _393  and  _396
REMARK  165  A    between atoms: _396  and  _397
REMARK  166  A    between atoms: _397  and  _398
REMARK  167  A    between atoms: _398  and  _399
REMARK  168  A    between atoms: _399  and  _400
REMARK  169  A    between atoms: _404  and  _406
REMARK  170  A    between atoms: _406  and  _407
REMARK  171  A    between atoms: _406  and  _409
REMARK  172  A    between atoms: _409  and  _410
REMARK  173  A    between atoms: _410  and  _411
REMARK  174  A    between atoms: _413  and  _415
REMARK  175  A    between atoms: _415  and  _416
REMARK  176  A    between atoms: _415  and  _418
REMARK  177  A    between atoms: _418  and  _419
REMARK  178  A    between atoms: _422  and  _424
REMARK  179  A    between atoms: _424  and  _425
REMARK  180  A    between atoms: _427  and  _429
REMARK  181  A    between atoms: _429  and  _430
REMARK  182  A    between atoms: _432  and  _434
REMARK  183  A    between atoms: _434  and  _435
REMARK  184  A    between atoms: _434  and  _437
REMARK  185  A    between atoms: _440  and  _442
REMARK  186  A    between atoms: _442  and  _443
REMARK  187  A    between atoms: _445  and  _447
REMARK  188  A    between atoms: _447  and  _448
REMARK  189  A    between atoms: _450  and  _452
REMARK  190  A    between atoms: _452  and  _453
REMARK  191  A    between atoms: _452  and  _455
REMARK  192  A    between atoms: _455  and  _456
REMARK  193  A    between atoms: _462  and  _464
REMARK  194  A    between atoms: _464  and  _465
REMARK  195  A    between atoms: _464  and  _467
REMARK  196  A    between atoms: _467  and  _468
REMARK  197  A    between atoms: _471  and  _473
REMARK  198  A    between atoms: _473  and  _474
REMARK  199  A    between atoms: _473  and  _476
REMARK  200  A    between atoms: _479  and  _481
REMARK  201  A    between atoms: _481  and  _482
REMARK  202  A    between atoms: _481  and  _484
REMARK  203  A    between atoms: _484  and  _485
REMARK  204  A    between atoms: _489  and  _490
REMARK  205  A    between atoms: _495  and  _497
REMARK  206  A    between atoms: _497  and  _498
REMARK  207  A    between atoms: _497  and  _500
REMARK  208  A    between atoms: _500  and  _501
REMARK  209  A    between atoms: _505  and  _506
REMARK  210  A    between atoms: _511  and  _513
REMARK  211  A    between atoms: _513  and  _514
REMARK  212  A    between atoms: _513  and  _516
REMARK  213  A    between atoms: _519  and  _521
REMARK  214  A    between atoms: _521  and  _522
REMARK  215  A    between atoms: _521  and  _524
REMARK  216  A    between atoms: _524  and  _525
REMARK  217  A    between atoms: _530  and  _532
REMARK  218  A    between atoms: _532  and  _533
REMARK  219  A    between atoms: _532  and  _535
REMARK  220  A    between atoms: _535  and  _536
REMARK  221  A    between atoms: _539  and  _541
REMARK  222  A    between atoms: _541  and  _542
REMARK  223  A    between atoms: _541  and  _544
REMARK  224  A    between atoms: _544  and  _545
REMARK  225  A    between atoms: _548  and  _550
REMARK  226  A    between atoms: _550  and  _551
REMARK  227  A    between atoms: _553  and  _555
REMARK  228  A    between atoms: _555  and  _556
REMARK  229  A    between atoms: _555  and  _558
REMARK  230  A    between atoms: _558  and  _559
REMARK  231  A    between atoms: _559  and  _560
REMARK  232  A    between atoms: _560  and  _561
REMARK  233  A    between atoms: _570  and  _572
REMARK  234  A    between atoms: _572  and  _573
REMARK  235  A    between atoms: _572  and  _575
REMARK  236  A    between atoms: _575  and  _576
REMARK                            x       y       z     vdW  Elec       q    Type
REMARK                         _______ _______ _______ _____ _____    ______ ____
ROOT
ATOM      1  O   HOH     1      26.548  21.983  23.671  0.00  0.00    +0.000 OA
ENDROOT
TORSDOF 0
REMARK  Name = ../refined-set-2016/2avq/2avq_pocket.pdb
REMARK  236 active torsions:
REMARK  status: ('A' for Active; 'I' for Inactive)
REMARK    1  A    between atoms: _1  and  _3
REMARK    2  A    between atoms: _3  and  _4
REMARK    3  A    between atoms: _3  and  _6
REMARK    4  A    between atoms: _6  and  _7
REMARK    5  A    between atoms: _7  and  _8
REMARK    6  A    between atoms: _8  and  _9
REMARK    7  A    between atoms: _18  and  _20
REMARK    8  A    between atoms: _20  and  _21
REMARK    9  A    between atoms: _20  and  _23
REMARK   10  A    between atoms: _23  and  _24
REMARK   11  A    between atoms: _27  and  _29
REMARK   12  A    between atoms: _29  and  _30
REMARK   13  A    between atoms: _29  and  _32
REMARK   14  A    between atoms: _32  and  _33
REMARK   15  A    between atoms: _36  and  _38
REMARK   16  A    between atoms: _38  and  _39
REMARK   17  A    between atoms: _38  and  _41
REMARK   18  A    between atoms: _41  and  _42
REMARK   19  A    between atoms: _45  and  _47
REMARK   20  A    between atoms: _47  and  _48
REMARK   21  A    between atoms: _47  and  _50
REMARK   22  A    between atoms: _50  and  _51
REMARK   23  A    between atoms: _54  and  _56
REMARK   24  A    between atoms: _56  and  _57
REMARK   25  A    between atoms: _56  and  _59
REMARK   26  A    between atoms: _59  and  _60
REMARK   27  A    between atoms: _63  and  _65
REMARK   28  A    between atoms: _65  and  _66
REMARK   29  A    between atoms: _68  and  _70
REMARK   30  A    between atoms: _70  and  _71
REMARK   31  A    between atoms: _74  and  _76
REMARK   32  A    between atoms: _76  and  _77
REMARK   33  A    between atoms: _76  and  _79
REMARK   34  A    between atoms: _79  and  _80
REMARK   35  A    between atoms: _83  and  _85
REMARK   36  A    between atoms: _85  and  _86
REMARK   37  A    between atoms: _85  and  _88
REMARK   38  A    between atoms: _88  and  _89
REMARK   39  A    between atoms: _92  and  _94
REMARK   40  A    between atoms: _94  and  _95
REMARK   41  A    between atoms: _94  and  _97
REMARK   42  A    between atoms: _97  and  _98
REMARK   43  A    between atoms: _101  and  _103
REMARK   44  A    between atoms: _103  and  _104
REMARK   45  A    between atoms: _103  and  _106
REMARK   46  A    between atoms: _109  and  _111
REMARK   47  A    between atoms: _111  and  _112
REMARK   48  A    between atoms: _111  and  _114
REMARK   49  A    between atoms: _114  and  _115
REMARK   50  A    between atoms: _115  and  _116
REMARK   51  A    between atoms: _116  and  _117
REMARK   52  A    between atoms: _117  and  _118
REMARK   53  A    between atoms: _122  and  _124
REMARK   54  A    between atoms: _124  and  _125
REMARK   55  A    between atoms: _124  and  _127
REMARK   56  A    between atoms: _127  and  _128
REMARK   57  A    between atoms: _128  and  _129
REMARK   58  A    between atoms: _131  and  _133
REMARK   59  A    between atoms: _133  and  _134
REMARK   60  A    between atoms: _133  and  _136
REMARK   61  A    between atoms: _136  and  _137
REMARK   62  A    between atoms: _140  and  _142
REMARK   63  A    between atoms: _142  and  _143
REMARK   64  A    between atoms: _145  and  _147
REMARK   65  A    between atoms: _147  and  _148
REMARK   66  A    between atoms: _150  and  _152
REMARK   67  A    between atoms: _152  and  _153
REMARK   68  A    between atoms: _152  and  _155
REMARK   69  A    between atoms: _158  and  _160
REMARK   70  A    between atoms: _160  and  _161
REMARK   71  A    between atoms: _163  and  _165
REMARK   72  A    between atoms: _165  and  _166
REMARK   73  A    between atoms: _168  and  _170
REMARK   74  A    between atoms: _170  and  _171
REMARK   75  A    between atoms: _170  and  _173
REMARK   76  A    between atoms: _173  and  _174
REMARK   77  A    between atoms: _180  and  _182
REMARK   78  A    between atoms: _182  and  _183
REMARK   79  A    between atoms: _182  and  _185
REMARK   80  A    between atoms: _185  and  _186
REMARK   81  A    between atoms: _189  and  _191
REMARK   82  A    between atoms: _191  and  _192
REMARK   83  A    between atoms: _191  and  _194
REMARK   84  A    between atoms: _197  and  _199
REMARK   85  A    between atoms: _199  and  _200
REMARK   86  A    between atoms: _199  and  _202
REMARK   87  A    between atoms: _202  and  _203
REMARK   88  A    between atoms: _206  and  _208
REMARK   89  A    between atoms: _208  and  _209
REMARK   90  A    between atoms: _208  and  _211
REMARK   91  A    between atoms: _211  and  _212
REMARK   92  A    between atoms: _216  and  _217
REMARK   93  A    between atoms: _222  and  _224
REMARK   94  A    between atoms: _224  and  _225
REMARK   95  A    between atoms: _224  and  _227
REMARK   96  A    between atoms: _230  and  _232
REMARK   97  A    between atoms: _232  and  _233
REMARK   98  A    between atoms: _232  and  _235
REMARK   99  A    between atoms: _235  and  _236
REMARK  100  A    between atoms: _241  and  _243
REMARK  101  A    between atoms: _243  and  _244
REMARK  102  A    between atoms: _243  and  _246
REMARK  103  A    between atoms: _246  and  _247
REMARK  104  A    between atoms: _250  and  _252
REMARK  105  A    between atoms: _252  and  _253
REMARK  106  A    between atoms: _252  and  _255
REMARK  107  A    between atoms: _255  and  _256
REMARK  108  A    between atoms: _259  and  _261
REMARK  109  A    between atoms: _261  and  _262
REMARK  110  A    between atoms: _264  and  _266
REMARK  111  A    between atoms: _266  and  _267
REMARK  112  A    between atoms: _266  and  _269
REMARK  113  A    between atoms: _269  and  _270
REMARK  114  A    between atoms: _270  and  _271
REMARK  115  A    between atoms: _271  and  _272
REMARK  116  A    between atoms: _281  and  _283
REMARK  117  A    between atoms: _283  and  _284
REMARK  118  A    between atoms: _283  and  _286
REMARK  119  A    between atoms: _286  and  _287
REMARK  120  A    between atoms: _292  and  _294
REMARK  121  A    between atoms: _294  and  _295
REMARK  122  A    between atoms: _294  and  _297
REMARK  123  A    between atoms: _297  and  _298
REMARK  124  A    between atoms: _298  and  _299
REMARK  125  A    between atoms: _299  and  _300
REMARK  126  A    between atoms: _302  and  _303
REMARK  127  A    between atoms: _309  and  _311
REMARK  128  A    between atoms: _311  and  _312
REMARK  129  A    between atoms: _311  and  _314
REMARK  130  A    between atoms: _314  and  _315
REMARK  131  A    between atoms: _318  and  _320
REMARK  132  A    between atoms: _320  and  _321
REMARK  133  A    between atoms: _320  and  _323
REMARK  134  A    between atoms: _323  and  _324
REMARK  135  A    between atoms: _327  and  _329
REMARK  136  A    between atoms: _329  and  _330
REMARK  137  A    between atoms: _329  and  _332
REMARK  138  A    between atoms: _332  and  _333
REMARK  139  A    between atoms: _336  and  _338
REMARK  140  A    between atoms: _338  and  _339
REMARK  141  A    between atoms: _338  and  _341
REMARK  142  A    between atoms: _341  and  _342
REMARK  143  A    between atoms: _345  and  _347
REMARK  144  A    between atoms: _347  and  _348
REMARK  145  A    between atoms: _350  and  _352
REMARK  146  A    between atoms: _352  and  _353
REMARK  147  A    between atoms: _356  and  _358
REMARK  148  A    between atoms: _358  and  _359
REMARK  149  A    between atoms: _358  and  _361
REMARK  150  A    between atoms: _361  and  _362
REMARK  151  A    between atoms: _365  and  _367
REMARK  152  A    between atoms: _367  and  _368
REMARK  153  A    between atoms: _367  and  _370
REMARK  154  A    between atoms: _370  and  _371
REMARK  155  A    between atoms: _374  and  _376
REMARK  156  A    between atoms: _376  and  _377
REMARK  157  A    between atoms: _376  and  _379
REMARK  158  A    between atoms: _379  and  _380
REMARK  159  A    between atoms: _383  and  _385
REMARK  160  A    between atoms: _385  and  _386
REMARK  161  A    between atoms: _385  and  _388
REMARK  162  A    between atoms: _391  and  _393
REMARK  163  A    between atoms: _393  and  _394
REMARK  164  A    between atoms: _393  and  _396
REMARK  165  A    between atoms: _396  and  _397
REMARK  166  A    between atoms: _397  and  _398
REMARK  167  A    between atoms: _398  and  _399
REMARK  168  A    between atoms: _399  and  _400
REMARK  169  A    between atoms: _404  and  _406
REMARK  170  A    between atoms: _406  and  _407
REMARK  171  A    between atoms: _406  and  _409
REMARK  172  A    between atoms: _409  and  _410
REMARK  173  A    between atoms: _410  and  _411
REMARK  174  A    between atoms: _413  and  _415
REMARK  175  A    between atoms: _415  and  _416
REMARK  176  A    between atoms: _415  and  _418
REMARK  177  A    between atoms: _418  and  _419
REMARK  178  A    between atoms: _422  and  _424
REMARK  179  A    between atoms: _424  and  _425
REMARK  180  A    between atoms: _427  and  _429
REMARK  181  A    between atoms: _429  and  _430
REMARK  182  A    between atoms: _432  and  _434
REMARK  183  A    between atoms: _434  and  _435
REMARK  184  A    between atoms: _434  and  _437
REMARK  185  A    between atoms: _440  and  _442
REMARK  186  A    between atoms: _442  and  _443
REMARK  187  A    between atoms: _445  and  _447
REMARK  188  A    between atoms: _447  and  _448
REMARK  189  A    between atoms: _450  and  _452
REMARK  190  A    between atoms: _452  and  _453
REMARK  191  A    between atoms: _452  and  _455
REMARK  192  A    between atoms: _455  and  _456
REMARK  193  A    between atoms: _462  and  _464
REMARK  194  A    between atoms: _464  and  _465
REMARK  195  A    between atoms: _464  and  _467
REMARK  196  A    between atoms: _467  and  _468
REMARK  197  A    between atoms: _471  and  _473
REMARK  198  A    between atoms: _473  and  _474
REMARK  199  A    between atoms: _473  and  _476
REMARK  200  A    between atoms: _479  and  _481
REMARK  201  A    between atoms: _481  and  _482
REMARK  202  A    between atoms: _481  and  _484
REMARK  203  A    between atoms: _484  and  _485
REMARK  204  A    between atoms: _489  and  _490
REMARK  205  A    between atoms: _495  and  _497
REMARK  206  A    between atoms: _497  and  _498
REMARK  207  A    between atoms: _497  and  _500
REMARK  208  A    between atoms: _500  and  _501
REMARK  209  A    between atoms: _505  and  _506
REMARK  210  A    between atoms: _511  and  _513
REMARK  211  A    between atoms: _513  and  _514
REMARK  212  A    between atoms: _513  and  _516
REMARK  213  A    between atoms: _519  and  _521
REMARK  214  A    between atoms: _521  and  _522
REMARK  215  A    between atoms: _521  and  _524
REMARK  216  A    between atoms: _524  and  _525
REMARK  217  A    between atoms: _530  and  _532
REMARK  218  A    between atoms: _532  and  _533
REMARK  219  A    between atoms: _532  and  _535
REMARK  220  A    between atoms: _535  and  _536
REMARK  221  A    between atoms: _539  and  _541
REMARK  222  A    between atoms: _541  and  _542
REMARK  223  A    between atoms: _541  and  _544
REMARK  224  A    between atoms: _544  and  _545
REMARK  225  A    between atoms: _548  and  _550
REMARK  226  A    between atoms: _550  and  _551
REMARK  227  A    between atoms: _553  and  _555
REMARK  228  A    between atoms: _555  and  _556
REMARK  229  A    between atoms: _555  and  _558
REMARK  230  A    between atoms: _558  and  _559
REMARK  231  A    between atoms: _559  and  _560
REMARK  232  A    between atoms: _560  and  _561
REMARK  233  A    between atoms: _570  and  _572
REMARK  234  A    between atoms: _572  and  _573
REMARK  235  A    between atoms: _572  and  _575
REMARK  236  A    between atoms: _575  and  _576
REMARK                            x       y       z     vdW  Elec       q    Type
REMARK                         _______ _______ _______ _____ _____    ______ ____
ROOT
ATOM      1  O   HOH     1      25.504  25.444  22.470  0.00  0.00    +0.000 OA
ENDROOT
TORSDOF 0
REMARK  Name = ../refined-set-2016/2avq/2avq_pocket.pdb
REMARK  236 active torsions:
REMARK  status: ('A' for Active; 'I' for Inactive)
REMARK    1  A    between atoms: _1  and  _3
REMARK    2  A    between atoms: _3  and  _4
REMARK    3  A    between atoms: _3  and  _6
REMARK    4  A    between atoms: _6  and  _7
REMARK    5  A    between atoms: _7  and  _8
REMARK    6  A    between atoms: _8  and  _9
REMARK    7  A    between atoms: _18  and  _20
REMARK    8  A    between atoms: _20  and  _21
REMARK    9  A    between atoms: _20  and  _23
REMARK   10  A    between atoms: _23  and  _24
REMARK   11  A    between atoms: _27  and  _29
REMARK   12  A    between atoms: _29  and  _30
REMARK   13  A    between atoms: _29  and  _32
REMARK   14  A    between atoms: _32  and  _33
REMARK   15  A    between atoms: _36  and  _38
REMARK   16  A    between atoms: _38  and  _39
REMARK   17  A    between atoms: _38  and  _41
REMARK   18  A    between atoms: _41  and  _42
REMARK   19  A    between atoms: _45  and  _47
REMARK   20  A    between atoms: _47  and  _48
REMARK   21  A    between atoms: _47  and  _50
REMARK   22  A    between atoms: _50  and  _51
REMARK   23  A    between atoms: _54  and  _56
REMARK   24  A    between atoms: _56  and  _57
REMARK   25  A    between atoms: _56  and  _59
REMARK   26  A    between atoms: _59  and  _60
REMARK   27  A    between atoms: _63  and  _65
REMARK   28  A    between atoms: _65  and  _66
REMARK   29  A    between atoms: _68  and  _70
REMARK   30  A    between atoms: _70  and  _71
REMARK   31  A    between atoms: _74  and  _76
REMARK   32  A    between atoms: _76  and  _77
REMARK   33  A    between atoms: _76  and  _79
REMARK   34  A    between atoms: _79  and  _80
REMARK   35  A    between atoms: _83  and  _85
REMARK   36  A    between atoms: _85  and  _86
REMARK   37  A    between atoms: _85  and  _88
REMARK   38  A    between atoms: _88  and  _89
REMARK   39  A    between atoms: _92  and  _94
REMARK   40  A    between atoms: _94  and  _95
REMARK   41  A    between atoms: _94  and  _97
REMARK   42  A    between atoms: _97  and  _98
REMARK   43  A    between atoms: _101  and  _103
REMARK   44  A    between atoms: _103  and  _104
REMARK   45  A    between atoms: _103  and  _106
REMARK   46  A    between atoms: _109  and  _111
REMARK   47  A    between atoms: _111  and  _112
REMARK   48  A    between atoms: _111  and  _114
REMARK   49  A    between atoms: _114  and  _115
REMARK   50  A    between atoms: _115  and  _116
REMARK   51  A    between atoms: _116  and  _117
REMARK   52  A    between atoms: _117  and  _118
REMARK   53  A    between atoms: _122  and  _124
REMARK   54  A    between atoms: _124  and  _125
REMARK   55  A    between atoms: _124  and  _127
REMARK   56  A    between atoms: _127  and  _128
REMARK   57  A    between atoms: _128  and  _129
REMARK   58  A    between atoms: _131  and  _133
REMARK   59  A    between atoms: _133  and  _134
REMARK   60  A    between atoms: _133  and  _136
REMARK   61  A    between atoms: _136  and  _137
REMARK   62  A    between atoms: _140  and  _142
REMARK   63  A    between atoms: _142  and  _143
REMARK   64  A    between atoms: _145  and  _147
REMARK   65  A    between atoms: _147  and  _148
REMARK   66  A    between atoms: _150  and  _152
REMARK   67  A    between atoms: _152  and  _153
REMARK   68  A    between atoms: _152  and  _155
REMARK   69  A    between atoms: _158  and  _160
REMARK   70  A    between atoms: _160  and  _161
REMARK   71  A    between atoms: _163  and  _165
REMARK   72  A    between atoms: _165  and  _166
REMARK   73  A    between atoms: _168  and  _170
REMARK   74  A    between atoms: _170  and  _171
REMARK   75  A    between atoms: _170  and  _173
REMARK   76  A    between atoms: _173  and  _174
REMARK   77  A    between atoms: _180  and  _182
REMARK   78  A    between atoms: _182  and  _183
REMARK   79  A    between atoms: _182  and  _185
REMARK   80  A    between atoms: _185  and  _186
REMARK   81  A    between atoms: _189  and  _191
REMARK   82  A    between atoms: _191  and  _192
REMARK   83  A    between atoms: _191  and  _194
REMARK   84  A    between atoms: _197  and  _199
REMARK   85  A    between atoms: _199  and  _200
REMARK   86  A    between atoms: _199  and  _202
REMARK   87  A    between atoms: _202  and  _203
REMARK   88  A    between atoms: _206  and  _208
REMARK   89  A    between atoms: _208  and  _209
REMARK   90  A    between atoms: _208  and  _211
REMARK   91  A    between atoms: _211  and  _212
REMARK   92  A    between atoms: _216  and  _217
REMARK   93  A    between atoms: _222  and  _224
REMARK   94  A    between atoms: _224  and  _225
REMARK   95  A    between atoms: _224  and  _227
REMARK   96  A    between atoms: _230  and  _232
REMARK   97  A    between atoms: _232  and  _233
REMARK   98  A    between atoms: _232  and  _235
REMARK   99  A    between atoms: _235  and  _236
REMARK  100  A    between atoms: _241  and  _243
REMARK  101  A    between atoms: _243  and  _244
REMARK  102  A    between atoms: _243  and  _246
REMARK  103  A    between atoms: _246  and  _247
REMARK  104  A    between atoms: _250  and  _252
REMARK  105  A    between atoms: _252  and  _253
REMARK  106  A    between atoms: _252  and  _255
REMARK  107  A    between atoms: _255  and  _256
REMARK  108  A    between atoms: _259  and  _261
REMARK  109  A    between atoms: _261  and  _262
REMARK  110  A    between atoms: _264  and  _266
REMARK  111  A    between atoms: _266  and  _267
REMARK  112  A    between atoms: _266  and  _269
REMARK  113  A    between atoms: _269  and  _270
REMARK  114  A    between atoms: _270  and  _271
REMARK  115  A    between atoms: _271  and  _272
REMARK  116  A    between atoms: _281  and  _283
REMARK  117  A    between atoms: _283  and  _284
REMARK  118  A    between atoms: _283  and  _286
REMARK  119  A    between atoms: _286  and  _287
REMARK  120  A    between atoms: _292  and  _294
REMARK  121  A    between atoms: _294  and  _295
REMARK  122  A    between atoms: _294  and  _297
REMARK  123  A    between atoms: _297  and  _298
REMARK  124  A    between atoms: _298  and  _299
REMARK  125  A    between atoms: _299  and  _300
REMARK  126  A    between atoms: _302  and  _303
REMARK  127  A    between atoms: _309  and  _311
REMARK  128  A    between atoms: _311  and  _312
REMARK  129  A    between atoms: _311  and  _314
REMARK  130  A    between atoms: _314  and  _315
REMARK  131  A    between atoms: _318  and  _320
REMARK  132  A    between atoms: _320  and  _321
REMARK  133  A    between atoms: _320  and  _323
REMARK  134  A    between atoms: _323  and  _324
REMARK  135  A    between atoms: _327  and  _329
REMARK  136  A    between atoms: _329  and  _330
REMARK  137  A    between atoms: _329  and  _332
REMARK  138  A    between atoms: _332  and  _333
REMARK  139  A    between atoms: _336  and  _338
REMARK  140  A    between atoms: _338  and  _339
REMARK  141  A    between atoms: _338  and  _341
REMARK  142  A    between atoms: _341  and  _342
REMARK  143  A    between atoms: _345  and  _347
REMARK  144  A    between atoms: _347  and  _348
REMARK  145  A    between atoms: _350  and  _352
REMARK  146  A    between atoms: _352  and  _353
REMARK  147  A    between atoms: _356  and  _358
REMARK  148  A    between atoms: _358  and  _359
REMARK  149  A    between atoms: _358  and  _361
REMARK  150  A    between atoms: _361  and  _362
REMARK  151  A    between atoms: _365  and  _367
REMARK  152  A    between atoms: _367  and  _368
REMARK  153  A    between atoms: _367  and  _370
REMARK  154  A    between atoms: _370  and  _371
REMARK  155  A    between atoms: _374  and  _376
REMARK  156  A    between atoms: _376  and  _377
REMARK  157  A    between atoms: _376  and  _379
REMARK  158  A    between atoms: _379  and  _380
REMARK  159  A    between atoms: _383  and  _385
REMARK  160  A    between atoms: _385  and  _386
REMARK  161  A    between atoms: _385  and  _388
REMARK  162  A    between atoms: _391  and  _393
REMARK  163  A    between atoms: _393  and  _394
REMARK  164  A    between atoms: _393  and  _396
REMARK  165  A    between atoms: _396  and  _397
REMARK  166  A    between atoms: _397  and  _398
REMARK  167  A    between atoms: _398  and  _399
REMARK  168  A    between atoms: _399  and  _400
REMARK  169  A    between atoms: _404  and  _406
REMARK  170  A    between atoms: _406  and  _407
REMARK  171  A    between atoms: _406  and  _409
REMARK  172  A    between atoms: _409  and  _410
REMARK  173  A    between atoms: _410  and  _411
REMARK  174  A    between atoms: _413  and  _415
REMARK  175  A    between atoms: _415  and  _416
REMARK  176  A    between atoms: _415  and  _418
REMARK  177  A    between atoms: _418  and  _419
REMARK  178  A    between atoms: _422  and  _424
REMARK  179  A    between atoms: _424  and  _425
REMARK  180  A    between atoms: _427  and  _429
REMARK  181  A    between atoms: _429  and  _430
REMARK  182  A    between atoms: _432  and  _434
REMARK  183  A    between atoms: _434  and  _435
REMARK  184  A    between atoms: _434  and  _437
REMARK  185  A    between atoms: _440  and  _442
REMARK  186  A    between atoms: _442  and  _443
REMARK  187  A    between atoms: _445  and  _447
REMARK  188  A    between atoms: _447  and  _448
REMARK  189  A    between atoms: _450  and  _452
REMARK  190  A    between atoms: _452  and  _453
REMARK  191  A    between atoms: _452  and  _455
REMARK  192  A    between atoms: _455  and  _456
REMARK  193  A    between atoms: _462  and  _464
REMARK  194  A    between atoms: _464  and  _465
REMARK  195  A    between atoms: _464  and  _467
REMARK  196  A    between atoms: _467  and  _468
REMARK  197  A    between atoms: _471  and  _473
REMARK  198  A    between atoms: _473  and  _474
REMARK  199  A    between atoms: _473  and  _476
REMARK  200  A    between atoms: _479  and  _481
REMARK  201  A    between atoms: _481  and  _482
REMARK  202  A    between atoms: _481  and  _484
REMARK  203  A    between atoms: _484  and  _485
REMARK  204  A    between atoms: _489  and  _490
REMARK  205  A    between atoms: _495  and  _497
REMARK  206  A    between atoms: _497  and  _498
REMARK  207  A    between atoms: _497  and  _500
REMARK  208  A    between atoms: _500  and  _501
REMARK  209  A    between atoms: _505  and  _506
REMARK  210  A    between atoms: _511  and  _513
REMARK  211  A    between atoms: _513  and  _514
REMARK  212  A    between atoms: _513  and  _516
REMARK  213  A    between atoms: _519  and  _521
REMARK  214  A    between atoms: _521  and  _522
REMARK  215  A    between atoms: _521  and  _524
REMARK  216  A    between atoms: _524  and  _525
REMARK  217  A    between atoms: _530  and  _532
REMARK  218  A    between atoms: _532  and  _533
REMARK  219  A    between atoms: _532  and  _535
REMARK  220  A    between atoms: _535  and  _536
REMARK  221  A    between atoms: _539  and  _541
REMARK  222  A    between atoms: _541  and  _542
REMARK  223  A    between atoms: _541  and  _544
REMARK  224  A    between atoms: _544  and  _545
REMARK  225  A    between atoms: _548  and  _550
REMARK  226  A    between atoms: _550  and  _551
REMARK  227  A    between atoms: _553  and  _555
REMARK  228  A    between atoms: _555  and  _556
REMARK  229  A    between atoms: _555  and  _558
REMARK  230  A    between atoms: _558  and  _559
REMARK  231  A    between atoms: _559  and  _560
REMARK  232  A    between atoms: _560  and  _561
REMARK  233  A    between atoms: _570  and  _572
REMARK  234  A    between atoms: _572  and  _573
REMARK  235  A    between atoms: _572  and  _575
REMARK  236  A    between atoms: _575  and  _576
REMARK                            x       y       z     vdW  Elec       q    Type
REMARK                         _______ _______ _______ _____ _____    ______ ____
ROOT
ATOM      1  O   HOH     1      12.544  15.991  12.149  0.00  0.00    +0.000 OA
ENDROOT
TORSDOF 0
REMARK  Name = ../refined-set-2016/2avq/2avq_pocket.pdb
REMARK  236 active torsions:
REMARK  status: ('A' for Active; 'I' for Inactive)
REMARK    1  A    between atoms: _1  and  _3
REMARK    2  A    between atoms: _3  and  _4
REMARK    3  A    between atoms: _3  and  _6
REMARK    4  A    between atoms: _6  and  _7
REMARK    5  A    between atoms: _7  and  _8
REMARK    6  A    between atoms: _8  and  _9
REMARK    7  A    between atoms: _18  and  _20
REMARK    8  A    between atoms: _20  and  _21
REMARK    9  A    between atoms: _20  and  _23
REMARK   10  A    between atoms: _23  and  _24
REMARK   11  A    between atoms: _27  and  _29
REMARK   12  A    between atoms: _29  and  _30
REMARK   13  A    between atoms: _29  and  _32
REMARK   14  A    between atoms: _32  and  _33
REMARK   15  A    between atoms: _36  and  _38
REMARK   16  A    between atoms: _38  and  _39
REMARK   17  A    between atoms: _38  and  _41
REMARK   18  A    between atoms: _41  and  _42
REMARK   19  A    between atoms: _45  and  _47
REMARK   20  A    between atoms: _47  and  _48
REMARK   21  A    between atoms: _47  and  _50
REMARK   22  A    between atoms: _50  and  _51
REMARK   23  A    between atoms: _54  and  _56
REMARK   24  A    between atoms: _56  and  _57
REMARK   25  A    between atoms: _56  and  _59
REMARK   26  A    between atoms: _59  and  _60
REMARK   27  A    between atoms: _63  and  _65
REMARK   28  A    between atoms: _65  and  _66
REMARK   29  A    between atoms: _68  and  _70
REMARK   30  A    between atoms: _70  and  _71
REMARK   31  A    between atoms: _74  and  _76
REMARK   32  A    between atoms: _76  and  _77
REMARK   33  A    between atoms: _76  and  _79
REMARK   34  A    between atoms: _79  and  _80
REMARK   35  A    between atoms: _83  and  _85
REMARK   36  A    between atoms: _85  and  _86
REMARK   37  A    between atoms: _85  and  _88
REMARK   38  A    between atoms: _88  and  _89
REMARK   39  A    between atoms: _92  and  _94
REMARK   40  A    between atoms: _94  and  _95
REMARK   41  A    between atoms: _94  and  _97
REMARK   42  A    between atoms: _97  and  _98
REMARK   43  A    between atoms: _101  and  _103
REMARK   44  A    between atoms: _103  and  _104
REMARK   45  A    between atoms: _103  and  _106
REMARK   46  A    between atoms: _109  and  _111
REMARK   47  A    between atoms: _111  and  _112
REMARK   48  A    between atoms: _111  and  _114
REMARK   49  A    between atoms: _114  and  _115
REMARK   50  A    between atoms: _115  and  _116
REMARK   51  A    between atoms: _116  and  _117
REMARK   52  A    between atoms: _117  and  _118
REMARK   53  A    between atoms: _122  and  _124
REMARK   54  A    between atoms: _124  and  _125
REMARK   55  A    between atoms: _124  and  _127
REMARK   56  A    between atoms: _127  and  _128
REMARK   57  A    between atoms: _128  and  _129
REMARK   58  A    between atoms: _131  and  _133
REMARK   59  A    between atoms: _133  and  _134
REMARK   60  A    between atoms: _133  and  _136
REMARK   61  A    between atoms: _136  and  _137
REMARK   62  A    between atoms: _140  and  _142
REMARK   63  A    between atoms: _142  and  _143
REMARK   64  A    between atoms: _145  and  _147
REMARK   65  A    between atoms: _147  and  _148
REMARK   66  A    between atoms: _150  and  _152
REMARK   67  A    between atoms: _152  and  _153
REMARK   68  A    between atoms: _152  and  _155
REMARK   69  A    between atoms: _158  and  _160
REMARK   70  A    between atoms: _160  and  _161
REMARK   71  A    between atoms: _163  and  _165
REMARK   72  A    between atoms: _165  and  _166
REMARK   73  A    between atoms: _168  and  _170
REMARK   74  A    between atoms: _170  and  _171
REMARK   75  A    between atoms: _170  and  _173
REMARK   76  A    between atoms: _173  and  _174
REMARK   77  A    between atoms: _180  and  _182
REMARK   78  A    between atoms: _182  and  _183
REMARK   79  A    between atoms: _182  and  _185
REMARK   80  A    between atoms: _185  and  _186
REMARK   81  A    between atoms: _189  and  _191
REMARK   82  A    between atoms: _191  and  _192
REMARK   83  A    between atoms: _191  and  _194
REMARK   84  A    between atoms: _197  and  _199
REMARK   85  A    between atoms: _199  and  _200
REMARK   86  A    between atoms: _199  and  _202
REMARK   87  A    between atoms: _202  and  _203
REMARK   88  A    between atoms: _206  and  _208
REMARK   89  A    between atoms: _208  and  _209
REMARK   90  A    between atoms: _208  and  _211
REMARK   91  A    between atoms: _211  and  _212
REMARK   92  A    between atoms: _216  and  _217
REMARK   93  A    between atoms: _222  and  _224
REMARK   94  A    between atoms: _224  and  _225
REMARK   95  A    between atoms: _224  and  _227
REMARK   96  A    between atoms: _230  and  _232
REMARK   97  A    between atoms: _232  and  _233
REMARK   98  A    between atoms: _232  and  _235
REMARK   99  A    between atoms: _235  and  _236
REMARK  100  A    between atoms: _241  and  _243
REMARK  101  A    between atoms: _243  and  _244
REMARK  102  A    between atoms: _243  and  _246
REMARK  103  A    between atoms: _246  and  _247
REMARK  104  A    between atoms: _250  and  _252
REMARK  105  A    between atoms: _252  and  _253
REMARK  106  A    between atoms: _252  and  _255
REMARK  107  A    between atoms: _255  and  _256
REMARK  108  A    between atoms: _259  and  _261
REMARK  109  A    between atoms: _261  and  _262
REMARK  110  A    between atoms: _264  and  _266
REMARK  111  A    between atoms: _266  and  _267
REMARK  112  A    between atoms: _266  and  _269
REMARK  113  A    between atoms: _269  and  _270
REMARK  114  A    between atoms: _270  and  _271
REMARK  115  A    between atoms: _271  and  _272
REMARK  116  A    between atoms: _281  and  _283
REMARK  117  A    between atoms: _283  and  _284
REMARK  118  A    between atoms: _283  and  _286
REMARK  119  A    between atoms: _286  and  _287
REMARK  120  A    between atoms: _292  and  _294
REMARK  121  A    between atoms: _294  and  _295
REMARK  122  A    between atoms: _294  and  _297
REMARK  123  A    between atoms: _297  and  _298
REMARK  124  A    between atoms: _298  and  _299
REMARK  125  A    between atoms: _299  and  _300
REMARK  126  A    between atoms: _302  and  _303
REMARK  127  A    between atoms: _309  and  _311
REMARK  128  A    between atoms: _311  and  _312
REMARK  129  A    between atoms: _311  and  _314
REMARK  130  A    between atoms: _314  and  _315
REMARK  131  A    between atoms: _318  and  _320
REMARK  132  A    between atoms: _320  and  _321
REMARK  133  A    between atoms: _320  and  _323
REMARK  134  A    between atoms: _323  and  _324
REMARK  135  A    between atoms: _327  and  _329
REMARK  136  A    between atoms: _329  and  _330
REMARK  137  A    between atoms: _329  and  _332
REMARK  138  A    between atoms: _332  and  _333
REMARK  139  A    between atoms: _336  and  _338
REMARK  140  A    between atoms: _338  and  _339
REMARK  141  A    between atoms: _338  and  _341
REMARK  142  A    between atoms: _341  and  _342
REMARK  143  A    between atoms: _345  and  _347
REMARK  144  A    between atoms: _347  and  _348
REMARK  145  A    between atoms: _350  and  _352
REMARK  146  A    between atoms: _352  and  _353
REMARK  147  A    between atoms: _356  and  _358
REMARK  148  A    between atoms: _358  and  _359
REMARK  149  A    between atoms: _358  and  _361
REMARK  150  A    between atoms: _361  and  _362
REMARK  151  A    between atoms: _365  and  _367
REMARK  152  A    between atoms: _367  and  _368
REMARK  153  A    between atoms: _367  and  _370
REMARK  154  A    between atoms: _370  and  _371
REMARK  155  A    between atoms: _374  and  _376
REMARK  156  A    between atoms: _376  and  _377
REMARK  157  A    between atoms: _376  and  _379
REMARK  158  A    between atoms: _379  and  _380
REMARK  159  A    between atoms: _383  and  _385
REMARK  160  A    between atoms: _385  and  _386
REMARK  161  A    between atoms: _385  and  _388
REMARK  162  A    between atoms: _391  and  _393
REMARK  163  A    between atoms: _393  and  _394
REMARK  164  A    between atoms: _393  and  _396
REMARK  165  A    between atoms: _396  and  _397
REMARK  166  A    between atoms: _397  and  _398
REMARK  167  A    between atoms: _398  and  _399
REMARK  168  A    between atoms: _399  and  _400
REMARK  169  A    between atoms: _404  and  _406
REMARK  170  A    between atoms: _406  and  _407
REMARK  171  A    between atoms: _406  and  _409
REMARK  172  A    between atoms: _409  and  _410
REMARK  173  A    between atoms: _410  and  _411
REMARK  174  A    between atoms: _413  and  _415
REMARK  175  A    between atoms: _415  and  _416
REMARK  176  A    between atoms: _415  and  _418
REMARK  177  A    between atoms: _418  and  _419
REMARK  178  A    between atoms: _422  and  _424
REMARK  179  A    between atoms: _424  and  _425
REMARK  180  A    between atoms: _427  and  _429
REMARK  181  A    between atoms: _429  and  _430
REMARK  182  A    between atoms: _432  and  _434
REMARK  183  A    between atoms: _434  and  _435
REMARK  184  A    between atoms: _434  and  _437
REMARK  185  A    between atoms: _440  and  _442
REMARK  186  A    between atoms: _442  and  _443
REMARK  187  A    between atoms: _445  and  _447
REMARK  188  A    between atoms: _447  and  _448
REMARK  189  A    between atoms: _450  and  _452
REMARK  190  A    between atoms: _452  and  _453
REMARK  191  A    between atoms: _452  and  _455
REMARK  192  A    between atoms: _455  and  _456
REMARK  193  A    between atoms: _462  and  _464
REMARK  194  A    between atoms: _464  and  _465
REMARK  195  A    between atoms: _464  and  _467
REMARK  196  A    between atoms: _467  and  _468
REMARK  197  A    between atoms: _471  and  _473
REMARK  198  A    between atoms: _473  and  _474
REMARK  199  A    between atoms: _473  and  _476
REMARK  200  A    between atoms: _479  and  _481
REMARK  201  A    between atoms: _481  and  _482
REMARK  202  A    between atoms: _481  and  _484
REMARK  203  A    between atoms: _484  and  _485
REMARK  204  A    between atoms: _489  and  _490
REMARK  205  A    between atoms: _495  and  _497
REMARK  206  A    between atoms: _497  and  _498
REMARK  207  A    between atoms: _497  and  _500
REMARK  208  A    between atoms: _500  and  _501
REMARK  209  A    between atoms: _505  and  _506
REMARK  210  A    between atoms: _511  and  _513
REMARK  211  A    between atoms: _513  and  _514
REMARK  212  A    between atoms: _513  and  _516
REMARK  213  A    between atoms: _519  and  _521
REMARK  214  A    between atoms: _521  and  _522
REMARK  215  A    between atoms: _521  and  _524
REMARK  216  A    between atoms: _524  and  _525
REMARK  217  A    between atoms: _530  and  _532
REMARK  218  A    between atoms: _532  and  _533
REMARK  219  A    between atoms: _532  and  _535
REMARK  220  A    between atoms: _535  and  _536
REMARK  221  A    between atoms: _539  and  _541
REMARK  222  A    between atoms: _541  and  _542
REMARK  223  A    between atoms: _541  and  _544
REMARK  224  A    between atoms: _544  and  _545
REMARK  225  A    between atoms: _548  and  _550
REMARK  226  A    between atoms: _550  and  _551
REMARK  227  A    between atoms: _553  and  _555
REMARK  228  A    between atoms: _555  and  _556
REMARK  229  A    between atoms: _555  and  _558
REMARK  230  A    between atoms: _558  and  _559
REMARK  231  A    between atoms: _559  and  _560
REMARK  232  A    between atoms: _560  and  _561
REMARK  233  A    between atoms: _570  and  _572
REMARK  234  A    between atoms: _572  and  _573
REMARK  235  A    between atoms: _572  and  _575
REMARK  236  A    between atoms: _575  and  _576
REMARK                            x       y       z     vdW  Elec       q    Type
REMARK                         _______ _______ _______ _____ _____    ______ ____
ROOT
ATOM      1  O   HOH     1      10.439  14.568  13.040  0.00  0.00    +0.000 OA
ENDROOT
TORSDOF 0
REMARK  Name = ../refined-set-2016/2avq/2avq_pocket.pdb
REMARK  236 active torsions:
REMARK  status: ('A' for Active; 'I' for Inactive)
REMARK    1  A    between atoms: _1  and  _3
REMARK    2  A    between atoms: _3  and  _4
REMARK    3  A    between atoms: _3  and  _6
REMARK    4  A    between atoms: _6  and  _7
REMARK    5  A    between atoms: _7  and  _8
REMARK    6  A    between atoms: _8  and  _9
REMARK    7  A    between atoms: _18  and  _20
REMARK    8  A    between atoms: _20  and  _21
REMARK    9  A    between atoms: _20  and  _23
REMARK   10  A    between atoms: _23  and  _24
REMARK   11  A    between atoms: _27  and  _29
REMARK   12  A    between atoms: _29  and  _30
REMARK   13  A    between atoms: _29  and  _32
REMARK   14  A    between atoms: _32  and  _33
REMARK   15  A    between atoms: _36  and  _38
REMARK   16  A    between atoms: _38  and  _39
REMARK   17  A    between atoms: _38  and  _41
REMARK   18  A    between atoms: _41  and  _42
REMARK   19  A    between atoms: _45  and  _47
REMARK   20  A    between atoms: _47  and  _48
REMARK   21  A    between atoms: _47  and  _50
REMARK   22  A    between atoms: _50  and  _51
REMARK   23  A    between atoms: _54  and  _56
REMARK   24  A    between atoms: _56  and  _57
REMARK   25  A    between atoms: _56  and  _59
REMARK   26  A    between atoms: _59  and  _60
REMARK   27  A    between atoms: _63  and  _65
REMARK   28  A    between atoms: _65  and  _66
REMARK   29  A    between atoms: _68  and  _70
REMARK   30  A    between atoms: _70  and  _71
REMARK   31  A    between atoms: _74  and  _76
REMARK   32  A    between atoms: _76  and  _77
REMARK   33  A    between atoms: _76  and  _79
REMARK   34  A    between atoms: _79  and  _80
REMARK   35  A    between atoms: _83  and  _85
REMARK   36  A    between atoms: _85  and  _86
REMARK   37  A    between atoms: _85  and  _88
REMARK   38  A    between atoms: _88  and  _89
REMARK   39  A    between atoms: _92  and  _94
REMARK   40  A    between atoms: _94  and  _95
REMARK   41  A    between atoms: _94  and  _97
REMARK   42  A    between atoms: _97  and  _98
REMARK   43  A    between atoms: _101  and  _103
REMARK   44  A    between atoms: _103  and  _104
REMARK   45  A    between atoms: _103  and  _106
REMARK   46  A    between atoms: _109  and  _111
REMARK   47  A    between atoms: _111  and  _112
REMARK   48  A    between atoms: _111  and  _114
REMARK   49  A    between atoms: _114  and  _115
REMARK   50  A    between atoms: _115  and  _116
REMARK   51  A    between atoms: _116  and  _117
REMARK   52  A    between atoms: _117  and  _118
REMARK   53  A    between atoms: _122  and  _124
REMARK   54  A    between atoms: _124  and  _125
REMARK   55  A    between atoms: _124  and  _127
REMARK   56  A    between atoms: _127  and  _128
REMARK   57  A    between atoms: _128  and  _129
REMARK   58  A    between atoms: _131  and  _133
REMARK   59  A    between atoms: _133  and  _134
REMARK   60  A    between atoms: _133  and  _136
REMARK   61  A    between atoms: _136  and  _137
REMARK   62  A    between atoms: _140  and  _142
REMARK   63  A    between atoms: _142  and  _143
REMARK   64  A    between atoms: _145  and  _147
REMARK   65  A    between atoms: _147  and  _148
REMARK   66  A    between atoms: _150  and  _152
REMARK   67  A    between atoms: _152  and  _153
REMARK   68  A    between atoms: _152  and  _155
REMARK   69  A    between atoms: _158  and  _160
REMARK   70  A    between atoms: _160  and  _161
REMARK   71  A    between atoms: _163  and  _165
REMARK   72  A    between atoms: _165  and  _166
REMARK   73  A    between atoms: _168  and  _170
REMARK   74  A    between atoms: _170  and  _171
REMARK   75  A    between atoms: _170  and  _173
REMARK   76  A    between atoms: _173  and  _174
REMARK   77  A    between atoms: _180  and  _182
REMARK   78  A    between atoms: _182  and  _183
REMARK   79  A    between atoms: _182  and  _185
REMARK   80  A    between atoms: _185  and  _186
REMARK   81  A    between atoms: _189  and  _191
REMARK   82  A    between atoms: _191  and  _192
REMARK   83  A    between atoms: _191  and  _194
REMARK   84  A    between atoms: _197  and  _199
REMARK   85  A    between atoms: _199  and  _200
REMARK   86  A    between atoms: _199  and  _202
REMARK   87  A    between atoms: _202  and  _203
REMARK   88  A    between atoms: _206  and  _208
REMARK   89  A    between atoms: _208  and  _209
REMARK   90  A    between atoms: _208  and  _211
REMARK   91  A    between atoms: _211  and  _212
REMARK   92  A    between atoms: _216  and  _217
REMARK   93  A    between atoms: _222  and  _224
REMARK   94  A    between atoms: _224  and  _225
REMARK   95  A    between atoms: _224  and  _227
REMARK   96  A    between atoms: _230  and  _232
REMARK   97  A    between atoms: _232  and  _233
REMARK   98  A    between atoms: _232  and  _235
REMARK   99  A    between atoms: _235  and  _236
REMARK  100  A    between atoms: _241  and  _243
REMARK  101  A    between atoms: _243  and  _244
REMARK  102  A    between atoms: _243  and  _246
REMARK  103  A    between atoms: _246  and  _247
REMARK  104  A    between atoms: _250  and  _252
REMARK  105  A    between atoms: _252  and  _253
REMARK  106  A    between atoms: _252  and  _255
REMARK  107  A    between atoms: _255  and  _256
REMARK  108  A    between atoms: _259  and  _261
REMARK  109  A    between atoms: _261  and  _262
REMARK  110  A    between atoms: _264  and  _266
REMARK  111  A    between atoms: _266  and  _267
REMARK  112  A    between atoms: _266  and  _269
REMARK  113  A    between atoms: _269  and  _270
REMARK  114  A    between atoms: _270  and  _271
REMARK  115  A    between atoms: _271  and  _272
REMARK  116  A    between atoms: _281  and  _283
REMARK  117  A    between atoms: _283  and  _284
REMARK  118  A    between atoms: _283  and  _286
REMARK  119  A    between atoms: _286  and  _287
REMARK  120  A    between atoms: _292  and  _294
REMARK  121  A    between atoms: _294  and  _295
REMARK  122  A    between atoms: _294  and  _297
REMARK  123  A    between atoms: _297  and  _298
REMARK  124  A    between atoms: _298  and  _299
REMARK  125  A    between atoms: _299  and  _300
REMARK  126  A    between atoms: _302  and  _303
REMARK  127  A    between atoms: _309  and  _311
REMARK  128  A    between atoms: _311  and  _312
REMARK  129  A    between atoms: _311  and  _314
REMARK  130  A    between atoms: _314  and  _315
REMARK  131  A    between atoms: _318  and  _320
REMARK  132  A    between atoms: _320  and  _321
REMARK  133  A    between atoms: _320  and  _323
REMARK  134  A    between atoms: _323  and  _324
REMARK  135  A    between atoms: _327  and  _329
REMARK  136  A    between atoms: _329  and  _330
REMARK  137  A    between atoms: _329  and  _332
REMARK  138  A    between atoms: _332  and  _333
REMARK  139  A    between atoms: _336  and  _338
REMARK  140  A    between atoms: _338  and  _339
REMARK  141  A    between atoms: _338  and  _341
REMARK  142  A    between atoms: _341  and  _342
REMARK  143  A    between atoms: _345  and  _347
REMARK  144  A    between atoms: _347  and  _348
REMARK  145  A    between atoms: _350  and  _352
REMARK  146  A    between atoms: _352  and  _353
REMARK  147  A    between atoms: _356  and  _358
REMARK  148  A    between atoms: _358  and  _359
REMARK  149  A    between atoms: _358  and  _361
REMARK  150  A    between atoms: _361  and  _362
REMARK  151  A    between atoms: _365  and  _367
REMARK  152  A    between atoms: _367  and  _368
REMARK  153  A    between atoms: _367  and  _370
REMARK  154  A    between atoms: _370  and  _371
REMARK  155  A    between atoms: _374  and  _376
REMARK  156  A    between atoms: _376  and  _377
REMARK  157  A    between atoms: _376  and  _379
REMARK  158  A    between atoms: _379  and  _380
REMARK  159  A    between atoms: _383  and  _385
REMARK  160  A    between atoms: _385  and  _386
REMARK  161  A    between atoms: _385  and  _388
REMARK  162  A    between atoms: _391  and  _393
REMARK  163  A    between atoms: _393  and  _394
REMARK  164  A    between atoms: _393  and  _396
REMARK  165  A    between atoms: _396  and  _397
REMARK  166  A    between atoms: _397  and  _398
REMARK  167  A    between atoms: _398  and  _399
REMARK  168  A    between atoms: _399  and  _400
REMARK  169  A    between atoms: _404  and  _406
REMARK  170  A    between atoms: _406  and  _407
REMARK  171  A    between atoms: _406  and  _409
REMARK  172  A    between atoms: _409  and  _410
REMARK  173  A    between atoms: _410  and  _411
REMARK  174  A    between atoms: _413  and  _415
REMARK  175  A    between atoms: _415  and  _416
REMARK  176  A    between atoms: _415  and  _418
REMARK  177  A    between atoms: _418  and  _419
REMARK  178  A    between atoms: _422  and  _424
REMARK  179  A    between atoms: _424  and  _425
REMARK  180  A    between atoms: _427  and  _429
REMARK  181  A    between atoms: _429  and  _430
REMARK  182  A    between atoms: _432  and  _434
REMARK  183  A    between atoms: _434  and  _435
REMARK  184  A    between atoms: _434  and  _437
REMARK  185  A    between atoms: _440  and  _442
REMARK  186  A    between atoms: _442  and  _443
REMARK  187  A    between atoms: _445  and  _447
REMARK  188  A    between atoms: _447  and  _448
REMARK  189  A    between atoms: _450  and  _452
REMARK  190  A    between atoms: _452  and  _453
REMARK  191  A    between atoms: _452  and  _455
REMARK  192  A    between atoms: _455  and  _456
REMARK  193  A    between atoms: _462  and  _464
REMARK  194  A    between atoms: _464  and  _465
REMARK  195  A    between atoms: _464  and  _467
REMARK  196  A    between atoms: _467  and  _468
REMARK  197  A    between atoms: _471  and  _473
REMARK  198  A    between atoms: _473  and  _474
REMARK  199  A    between atoms: _473  and  _476
REMARK  200  A    between atoms: _479  and  _481
REMARK  201  A    between atoms: _481  and  _482
REMARK  202  A    between atoms: _481  and  _484
REMARK  203  A    between atoms: _484  and  _485
REMARK  204  A    between atoms: _489  and  _490
REMARK  205  A    between atoms: _495  and  _497
REMARK  206  A    between atoms: _497  and  _498
REMARK  207  A    between atoms: _497  and  _500
REMARK  208  A    between atoms: _500  and  _501
REMARK  209  A    between atoms: _505  and  _506
REMARK  210  A    between atoms: _511  and  _513
REMARK  211  A    between atoms: _513  and  _514
REMARK  212  A    between atoms: _513  and  _516
REMARK  213  A    between atoms: _519  and  _521
REMARK  214  A    between atoms: _521  and  _522
REMARK  215  A    between atoms: _521  and  _524
REMARK  216  A    between atoms: _524  and  _525
REMARK  217  A    between atoms: _530  and  _532
REMARK  218  A    between atoms: _532  and  _533
REMARK  219  A    between atoms: _532  and  _535
REMARK  220  A    between atoms: _535  and  _536
REMARK  221  A    between atoms: _539  and  _541
REMARK  222  A    between atoms: _541  and  _542
REMARK  223  A    between atoms: _541  and  _544
REMARK  224  A    between atoms: _544  and  _545
REMARK  225  A    between atoms: _548  and  _550
REMARK  226  A    between atoms: _550  and  _551
REMARK  227  A    between atoms: _553  and  _555
REMARK  228  A    between atoms: _555  and  _556
REMARK  229  A    between atoms: _555  and  _558
REMARK  230  A    between atoms: _558  and  _559
REMARK  231  A    between atoms: _559  and  _560
REMARK  232  A    between atoms: _560  and  _561
REMARK  233  A    between atoms: _570  and  _572
REMARK  234  A    between atoms: _572  and  _573
REMARK  235  A    between atoms: _572  and  _575
REMARK  236  A    between atoms: _575  and  _576
REMARK                            x       y       z     vdW  Elec       q    Type
REMARK                         _______ _______ _______ _____ _____    ______ ____
ROOT
ATOM      1  O   HOH     1       6.454  12.934  24.625  0.00  0.00    +0.000 OA
ENDROOT
TORSDOF 0
REMARK  Name = ../refined-set-2016/2avq/2avq_pocket.pdb
REMARK  236 active torsions:
REMARK  status: ('A' for Active; 'I' for Inactive)
REMARK    1  A    between atoms: _1  and  _3
REMARK    2  A    between atoms: _3  and  _4
REMARK    3  A    between atoms: _3  and  _6
REMARK    4  A    between atoms: _6  and  _7
REMARK    5  A    between atoms: _7  and  _8
REMARK    6  A    between atoms: _8  and  _9
REMARK    7  A    between atoms: _18  and  _20
REMARK    8  A    between atoms: _20  and  _21
REMARK    9  A    between atoms: _20  and  _23
REMARK   10  A    between atoms: _23  and  _24
REMARK   11  A    between atoms: _27  and  _29
REMARK   12  A    between atoms: _29  and  _30
REMARK   13  A    between atoms: _29  and  _32
REMARK   14  A    between atoms: _32  and  _33
REMARK   15  A    between atoms: _36  and  _38
REMARK   16  A    between atoms: _38  and  _39
REMARK   17  A    between atoms: _38  and  _41
REMARK   18  A    between atoms: _41  and  _42
REMARK   19  A    between atoms: _45  and  _47
REMARK   20  A    between atoms: _47  and  _48
REMARK   21  A    between atoms: _47  and  _50
REMARK   22  A    between atoms: _50  and  _51
REMARK   23  A    between atoms: _54  and  _56
REMARK   24  A    between atoms: _56  and  _57
REMARK   25  A    between atoms: _56  and  _59
REMARK   26  A    between atoms: _59  and  _60
REMARK   27  A    between atoms: _63  and  _65
REMARK   28  A    between atoms: _65  and  _66
REMARK   29  A    between atoms: _68  and  _70
REMARK   30  A    between atoms: _70  and  _71
REMARK   31  A    between atoms: _74  and  _76
REMARK   32  A    between atoms: _76  and  _77
REMARK   33  A    between atoms: _76  and  _79
REMARK   34  A    between atoms: _79  and  _80
REMARK   35  A    between atoms: _83  and  _85
REMARK   36  A    between atoms: _85  and  _86
REMARK   37  A    between atoms: _85  and  _88
REMARK   38  A    between atoms: _88  and  _89
REMARK   39  A    between atoms: _92  and  _94
REMARK   40  A    between atoms: _94  and  _95
REMARK   41  A    between atoms: _94  and  _97
REMARK   42  A    between atoms: _97  and  _98
REMARK   43  A    between atoms: _101  and  _103
REMARK   44  A    between atoms: _103  and  _104
REMARK   45  A    between atoms: _103  and  _106
REMARK   46  A    between atoms: _109  and  _111
REMARK   47  A    between atoms: _111  and  _112
REMARK   48  A    between atoms: _111  and  _114
REMARK   49  A    between atoms: _114  and  _115
REMARK   50  A    between atoms: _115  and  _116
REMARK   51  A    between atoms: _116  and  _117
REMARK   52  A    between atoms: _117  and  _118
REMARK   53  A    between atoms: _122  and  _124
REMARK   54  A    between atoms: _124  and  _125
REMARK   55  A    between atoms: _124  and  _127
REMARK   56  A    between atoms: _127  and  _128
REMARK   57  A    between atoms: _128  and  _129
REMARK   58  A    between atoms: _131  and  _133
REMARK   59  A    between atoms: _133  and  _134
REMARK   60  A    between atoms: _133  and  _136
REMARK   61  A    between atoms: _136  and  _137
REMARK   62  A    between atoms: _140  and  _142
REMARK   63  A    between atoms: _142  and  _143
REMARK   64  A    between atoms: _145  and  _147
REMARK   65  A    between atoms: _147  and  _148
REMARK   66  A    between atoms: _150  and  _152
REMARK   67  A    between atoms: _152  and  _153
REMARK   68  A    between atoms: _152  and  _155
REMARK   69  A    between atoms: _158  and  _160
REMARK   70  A    between atoms: _160  and  _161
REMARK   71  A    between atoms: _163  and  _165
REMARK   72  A    between atoms: _165  and  _166
REMARK   73  A    between atoms: _168  and  _170
REMARK   74  A    between atoms: _170  and  _171
REMARK   75  A    between atoms: _170  and  _173
REMARK   76  A    between atoms: _173  and  _174
REMARK   77  A    between atoms: _180  and  _182
REMARK   78  A    between atoms: _182  and  _183
REMARK   79  A    between atoms: _182  and  _185
REMARK   80  A    between atoms: _185  and  _186
REMARK   81  A    between atoms: _189  and  _191
REMARK   82  A    between atoms: _191  and  _192
REMARK   83  A    between atoms: _191  and  _194
REMARK   84  A    between atoms: _197  and  _199
REMARK   85  A    between atoms: _199  and  _200
REMARK   86  A    between atoms: _199  and  _202
REMARK   87  A    between atoms: _202  and  _203
REMARK   88  A    between atoms: _206  and  _208
REMARK   89  A    between atoms: _208  and  _209
REMARK   90  A    between atoms: _208  and  _211
REMARK   91  A    between atoms: _211  and  _212
REMARK   92  A    between atoms: _216  and  _217
REMARK   93  A    between atoms: _222  and  _224
REMARK   94  A    between atoms: _224  and  _225
REMARK   95  A    between atoms: _224  and  _227
REMARK   96  A    between atoms: _230  and  _232
REMARK   97  A    between atoms: _232  and  _233
REMARK   98  A    between atoms: _232  and  _235
REMARK   99  A    between atoms: _235  and  _236
REMARK  100  A    between atoms: _241  and  _243
REMARK  101  A    between atoms: _243  and  _244
REMARK  102  A    between atoms: _243  and  _246
REMARK  103  A    between atoms: _246  and  _247
REMARK  104  A    between atoms: _250  and  _252
REMARK  105  A    between atoms: _252  and  _253
REMARK  106  A    between atoms: _252  and  _255
REMARK  107  A    between atoms: _255  and  _256
REMARK  108  A    between atoms: _259  and  _261
REMARK  109  A    between atoms: _261  and  _262
REMARK  110  A    between atoms: _264  and  _266
REMARK  111  A    between atoms: _266  and  _267
REMARK  112  A    between atoms: _266  and  _269
REMARK  113  A    between atoms: _269  and  _270
REMARK  114  A    between atoms: _270  and  _271
REMARK  115  A    between atoms: _271  and  _272
REMARK  116  A    between atoms: _281  and  _283
REMARK  117  A    between atoms: _283  and  _284
REMARK  118  A    between atoms: _283  and  _286
REMARK  119  A    between atoms: _286  and  _287
REMARK  120  A    between atoms: _292  and  _294
REMARK  121  A    between atoms: _294  and  _295
REMARK  122  A    between atoms: _294  and  _297
REMARK  123  A    between atoms: _297  and  _298
REMARK  124  A    between atoms: _298  and  _299
REMARK  125  A    between atoms: _299  and  _300
REMARK  126  A    between atoms: _302  and  _303
REMARK  127  A    between atoms: _309  and  _311
REMARK  128  A    between atoms: _311  and  _312
REMARK  129  A    between atoms: _311  and  _314
REMARK  130  A    between atoms: _314  and  _315
REMARK  131  A    between atoms: _318  and  _320
REMARK  132  A    between atoms: _320  and  _321
REMARK  133  A    between atoms: _320  and  _323
REMARK  134  A    between atoms: _323  and  _324
REMARK  135  A    between atoms: _327  and  _329
REMARK  136  A    between atoms: _329  and  _330
REMARK  137  A    between atoms: _329  and  _332
REMARK  138  A    between atoms: _332  and  _333
REMARK  139  A    between atoms: _336  and  _338
REMARK  140  A    between atoms: _338  and  _339
REMARK  141  A    between atoms: _338  and  _341
REMARK  142  A    between atoms: _341  and  _342
REMARK  143  A    between atoms: _345  and  _347
REMARK  144  A    between atoms: _347  and  _348
REMARK  145  A    between atoms: _350  and  _352
REMARK  146  A    between atoms: _352  and  _353
REMARK  147  A    between atoms: _356  and  _358
REMARK  148  A    between atoms: _358  and  _359
REMARK  149  A    between atoms: _358  and  _361
REMARK  150  A    between atoms: _361  and  _362
REMARK  151  A    between atoms: _365  and  _367
REMARK  152  A    between atoms: _367  and  _368
REMARK  153  A    between atoms: _367  and  _370
REMARK  154  A    between atoms: _370  and  _371
REMARK  155  A    between atoms: _374  and  _376
REMARK  156  A    between atoms: _376  and  _377
REMARK  157  A    between atoms: _376  and  _379
REMARK  158  A    between atoms: _379  and  _380
REMARK  159  A    between atoms: _383  and  _385
REMARK  160  A    between atoms: _385  and  _386
REMARK  161  A    between atoms: _385  and  _388
REMARK  162  A    between atoms: _391  and  _393
REMARK  163  A    between atoms: _393  and  _394
REMARK  164  A    between atoms: _393  and  _396
REMARK  165  A    between atoms: _396  and  _397
REMARK  166  A    between atoms: _397  and  _398
REMARK  167  A    between atoms: _398  and  _399
REMARK  168  A    between atoms: _399  and  _400
REMARK  169  A    between atoms: _404  and  _406
REMARK  170  A    between atoms: _406  and  _407
REMARK  171  A    between atoms: _406  and  _409
REMARK  172  A    between atoms: _409  and  _410
REMARK  173  A    between atoms: _410  and  _411
REMARK  174  A    between atoms: _413  and  _415
REMARK  175  A    between atoms: _415  and  _416
REMARK  176  A    between atoms: _415  and  _418
REMARK  177  A    between atoms: _418  and  _419
REMARK  178  A    between atoms: _422  and  _424
REMARK  179  A    between atoms: _424  and  _425
REMARK  180  A    between atoms: _427  and  _429
REMARK  181  A    between atoms: _429  and  _430
REMARK  182  A    between atoms: _432  and  _434
REMARK  183  A    between atoms: _434  and  _435
REMARK  184  A    between atoms: _434  and  _437
REMARK  185  A    between atoms: _440  and  _442
REMARK  186  A    between atoms: _442  and  _443
REMARK  187  A    between atoms: _445  and  _447
REMARK  188  A    between atoms: _447  and  _448
REMARK  189  A    between atoms: _450  and  _452
REMARK  190  A    between atoms: _452  and  _453
REMARK  191  A    between atoms: _452  and  _455
REMARK  192  A    between atoms: _455  and  _456
REMARK  193  A    between atoms: _462  and  _464
REMARK  194  A    between atoms: _464  and  _465
REMARK  195  A    between atoms: _464  and  _467
REMARK  196  A    between atoms: _467  and  _468
REMARK  197  A    between atoms: _471  and  _473
REMARK  198  A    between atoms: _473  and  _474
REMARK  199  A    between atoms: _473  and  _476
REMARK  200  A    between atoms: _479  and  _481
REMARK  201  A    between atoms: _481  and  _482
REMARK  202  A    between atoms: _481  and  _484
REMARK  203  A    between atoms: _484  and  _485
REMARK  204  A    between atoms: _489  and  _490
REMARK  205  A    between atoms: _495  and  _497
REMARK  206  A    between atoms: _497  and  _498
REMARK  207  A    between atoms: _497  and  _500
REMARK  208  A    between atoms: _500  and  _501
REMARK  209  A    between atoms: _505  and  _506
REMARK  210  A    between atoms: _511  and  _513
REMARK  211  A    between atoms: _513  and  _514
REMARK  212  A    between atoms: _513  and  _516
REMARK  213  A    between atoms: _519  and  _521
REMARK  214  A    between atoms: _521  and  _522
REMARK  215  A    between atoms: _521  and  _524
REMARK  216  A    between atoms: _524  and  _525
REMARK  217  A    between atoms: _530  and  _532
REMARK  218  A    between atoms: _532  and  _533
REMARK  219  A    between atoms: _532  and  _535
REMARK  220  A    between atoms: _535  and  _536
REMARK  221  A    between atoms: _539  and  _541
REMARK  222  A    between atoms: _541  and  _542
REMARK  223  A    between atoms: _541  and  _544
REMARK  224  A    between atoms: _544  and  _545
REMARK  225  A    between atoms: _548  and  _550
REMARK  226  A    between atoms: _550  and  _551
REMARK  227  A    between atoms: _553  and  _555
REMARK  228  A    between atoms: _555  and  _556
REMARK  229  A    between atoms: _555  and  _558
REMARK  230  A    between atoms: _558  and  _559
REMARK  231  A    between atoms: _559  and  _560
REMARK  232  A    between atoms: _560  and  _561
REMARK  233  A    between atoms: _570  and  _572
REMARK  234  A    between atoms: _572  and  _573
REMARK  235  A    between atoms: _572  and  _575
REMARK  236  A    between atoms: _575  and  _576
REMARK                            x       y       z     vdW  Elec       q    Type
REMARK                         _______ _______ _______ _____ _____    ______ ____
ROOT
ATOM      1  O   HOH     1      20.375  25.387  27.447  0.00  0.00    +0.000 OA
ENDROOT
TORSDOF 0
REMARK  Name = ../refined-set-2016/2avq/2avq_pocket.pdb
REMARK  236 active torsions:
REMARK  status: ('A' for Active; 'I' for Inactive)
REMARK    1  A    between atoms: _1  and  _3
REMARK    2  A    between atoms: _3  and  _4
REMARK    3  A    between atoms: _3  and  _6
REMARK    4  A    between atoms: _6  and  _7
REMARK    5  A    between atoms: _7  and  _8
REMARK    6  A    between atoms: _8  and  _9
REMARK    7  A    between atoms: _18  and  _20
REMARK    8  A    between atoms: _20  and  _21
REMARK    9  A    between atoms: _20  and  _23
REMARK   10  A    between atoms: _23  and  _24
REMARK   11  A    between atoms: _27  and  _29
REMARK   12  A    between atoms: _29  and  _30
REMARK   13  A    between atoms: _29  and  _32
REMARK   14  A    between atoms: _32  and  _33
REMARK   15  A    between atoms: _36  and  _38
REMARK   16  A    between atoms: _38  and  _39
REMARK   17  A    between atoms: _38  and  _41
REMARK   18  A    between atoms: _41  and  _42
REMARK   19  A    between atoms: _45  and  _47
REMARK   20  A    between atoms: _47  and  _48
REMARK   21  A    between atoms: _47  and  _50
REMARK   22  A    between atoms: _50  and  _51
REMARK   23  A    between atoms: _54  and  _56
REMARK   24  A    between atoms: _56  and  _57
REMARK   25  A    between atoms: _56  and  _59
REMARK   26  A    between atoms: _59  and  _60
REMARK   27  A    between atoms: _63  and  _65
REMARK   28  A    between atoms: _65  and  _66
REMARK   29  A    between atoms: _68  and  _70
REMARK   30  A    between atoms: _70  and  _71
REMARK   31  A    between atoms: _74  and  _76
REMARK   32  A    between atoms: _76  and  _77
REMARK   33  A    between atoms: _76  and  _79
REMARK   34  A    between atoms: _79  and  _80
REMARK   35  A    between atoms: _83  and  _85
REMARK   36  A    between atoms: _85  and  _86
REMARK   37  A    between atoms: _85  and  _88
REMARK   38  A    between atoms: _88  and  _89
REMARK   39  A    between atoms: _92  and  _94
REMARK   40  A    between atoms: _94  and  _95
REMARK   41  A    between atoms: _94  and  _97
REMARK   42  A    between atoms: _97  and  _98
REMARK   43  A    between atoms: _101  and  _103
REMARK   44  A    between atoms: _103  and  _104
REMARK   45  A    between atoms: _103  and  _106
REMARK   46  A    between atoms: _109  and  _111
REMARK   47  A    between atoms: _111  and  _112
REMARK   48  A    between atoms: _111  and  _114
REMARK   49  A    between atoms: _114  and  _115
REMARK   50  A    between atoms: _115  and  _116
REMARK   51  A    between atoms: _116  and  _117
REMARK   52  A    between atoms: _117  and  _118
REMARK   53  A    between atoms: _122  and  _124
REMARK   54  A    between atoms: _124  and  _125
REMARK   55  A    between atoms: _124  and  _127
REMARK   56  A    between atoms: _127  and  _128
REMARK   57  A    between atoms: _128  and  _129
REMARK   58  A    between atoms: _131  and  _133
REMARK   59  A    between atoms: _133  and  _134
REMARK   60  A    between atoms: _133  and  _136
REMARK   61  A    between atoms: _136  and  _137
REMARK   62  A    between atoms: _140  and  _142
REMARK   63  A    between atoms: _142  and  _143
REMARK   64  A    between atoms: _145  and  _147
REMARK   65  A    between atoms: _147  and  _148
REMARK   66  A    between atoms: _150  and  _152
REMARK   67  A    between atoms: _152  and  _153
REMARK   68  A    between atoms: _152  and  _155
REMARK   69  A    between atoms: _158  and  _160
REMARK   70  A    between atoms: _160  and  _161
REMARK   71  A    between atoms: _163  and  _165
REMARK   72  A    between atoms: _165  and  _166
REMARK   73  A    between atoms: _168  and  _170
REMARK   74  A    between atoms: _170  and  _171
REMARK   75  A    between atoms: _170  and  _173
REMARK   76  A    between atoms: _173  and  _174
REMARK   77  A    between atoms: _180  and  _182
REMARK   78  A    between atoms: _182  and  _183
REMARK   79  A    between atoms: _182  and  _185
REMARK   80  A    between atoms: _185  and  _186
REMARK   81  A    between atoms: _189  and  _191
REMARK   82  A    between atoms: _191  and  _192
REMARK   83  A    between atoms: _191  and  _194
REMARK   84  A    between atoms: _197  and  _199
REMARK   85  A    between atoms: _199  and  _200
REMARK   86  A    between atoms: _199  and  _202
REMARK   87  A    between atoms: _202  and  _203
REMARK   88  A    between atoms: _206  and  _208
REMARK   89  A    between atoms: _208  and  _209
REMARK   90  A    between atoms: _208  and  _211
REMARK   91  A    between atoms: _211  and  _212
REMARK   92  A    between atoms: _216  and  _217
REMARK   93  A    between atoms: _222  and  _224
REMARK   94  A    between atoms: _224  and  _225
REMARK   95  A    between atoms: _224  and  _227
REMARK   96  A    between atoms: _230  and  _232
REMARK   97  A    between atoms: _232  and  _233
REMARK   98  A    between atoms: _232  and  _235
REMARK   99  A    between atoms: _235  and  _236
REMARK  100  A    between atoms: _241  and  _243
REMARK  101  A    between atoms: _243  and  _244
REMARK  102  A    between atoms: _243  and  _246
REMARK  103  A    between atoms: _246  and  _247
REMARK  104  A    between atoms: _250  and  _252
REMARK  105  A    between atoms: _252  and  _253
REMARK  106  A    between atoms: _252  and  _255
REMARK  107  A    between atoms: _255  and  _256
REMARK  108  A    between atoms: _259  and  _261
REMARK  109  A    between atoms: _261  and  _262
REMARK  110  A    between atoms: _264  and  _266
REMARK  111  A    between atoms: _266  and  _267
REMARK  112  A    between atoms: _266  and  _269
REMARK  113  A    between atoms: _269  and  _270
REMARK  114  A    between atoms: _270  and  _271
REMARK  115  A    between atoms: _271  and  _272
REMARK  116  A    between atoms: _281  and  _283
REMARK  117  A    between atoms: _283  and  _284
REMARK  118  A    between atoms: _283  and  _286
REMARK  119  A    between atoms: _286  and  _287
REMARK  120  A    between atoms: _292  and  _294
REMARK  121  A    between atoms: _294  and  _295
REMARK  122  A    between atoms: _294  and  _297
REMARK  123  A    between atoms: _297  and  _298
REMARK  124  A    between atoms: _298  and  _299
REMARK  125  A    between atoms: _299  and  _300
REMARK  126  A    between atoms: _302  and  _303
REMARK  127  A    between atoms: _309  and  _311
REMARK  128  A    between atoms: _311  and  _312
REMARK  129  A    between atoms: _311  and  _314
REMARK  130  A    between atoms: _314  and  _315
REMARK  131  A    between atoms: _318  and  _320
REMARK  132  A    between atoms: _320  and  _321
REMARK  133  A    between atoms: _320  and  _323
REMARK  134  A    between atoms: _323  and  _324
REMARK  135  A    between atoms: _327  and  _329
REMARK  136  A    between atoms: _329  and  _330
REMARK  137  A    between atoms: _329  and  _332
REMARK  138  A    between atoms: _332  and  _333
REMARK  139  A    between atoms: _336  and  _338
REMARK  140  A    between atoms: _338  and  _339
REMARK  141  A    between atoms: _338  and  _341
REMARK  142  A    between atoms: _341  and  _342
REMARK  143  A    between atoms: _345  and  _347
REMARK  144  A    between atoms: _347  and  _348
REMARK  145  A    between atoms: _350  and  _352
REMARK  146  A    between atoms: _352  and  _353
REMARK  147  A    between atoms: _356  and  _358
REMARK  148  A    between atoms: _358  and  _359
REMARK  149  A    between atoms: _358  and  _361
REMARK  150  A    between atoms: _361  and  _362
REMARK  151  A    between atoms: _365  and  _367
REMARK  152  A    between atoms: _367  and  _368
REMARK  153  A    between atoms: _367  and  _370
REMARK  154  A    between atoms: _370  and  _371
REMARK  155  A    between atoms: _374  and  _376
REMARK  156  A    between atoms: _376  and  _377
REMARK  157  A    between atoms: _376  and  _379
REMARK  158  A    between atoms: _379  and  _380
REMARK  159  A    between atoms: _383  and  _385
REMARK  160  A    between atoms: _385  and  _386
REMARK  161  A    between atoms: _385  and  _388
REMARK  162  A    between atoms: _391  and  _393
REMARK  163  A    between atoms: _393  and  _394
REMARK  164  A    between atoms: _393  and  _396
REMARK  165  A    between atoms: _396  and  _397
REMARK  166  A    between atoms: _397  and  _398
REMARK  167  A    between atoms: _398  and  _399
REMARK  168  A    between atoms: _399  and  _400
REMARK  169  A    between atoms: _404  and  _406
REMARK  170  A    between atoms: _406  and  _407
REMARK  171  A    between atoms: _406  and  _409
REMARK  172  A    between atoms: _409  and  _410
REMARK  173  A    between atoms: _410  and  _411
REMARK  174  A    between atoms: _413  and  _415
REMARK  175  A    between atoms: _415  and  _416
REMARK  176  A    between atoms: _415  and  _418
REMARK  177  A    between atoms: _418  and  _419
REMARK  178  A    between atoms: _422  and  _424
REMARK  179  A    between atoms: _424  and  _425
REMARK  180  A    between atoms: _427  and  _429
REMARK  181  A    between atoms: _429  and  _430
REMARK  182  A    between atoms: _432  and  _434
REMARK  183  A    between atoms: _434  and  _435
REMARK  184  A    between atoms: _434  and  _437
REMARK  185  A    between atoms: _440  and  _442
REMARK  186  A    between atoms: _442  and  _443
REMARK  187  A    between atoms: _445  and  _447
REMARK  188  A    between atoms: _447  and  _448
REMARK  189  A    between atoms: _450  and  _452
REMARK  190  A    between atoms: _452  and  _453
REMARK  191  A    between atoms: _452  and  _455
REMARK  192  A    between atoms: _455  and  _456
REMARK  193  A    between atoms: _462  and  _464
REMARK  194  A    between atoms: _464  and  _465
REMARK  195  A    between atoms: _464  and  _467
REMARK  196  A    between atoms: _467  and  _468
REMARK  197  A    between atoms: _471  and  _473
REMARK  198  A    between atoms: _473  and  _474
REMARK  199  A    between atoms: _473  and  _476
REMARK  200  A    between atoms: _479  and  _481
REMARK  201  A    between atoms: _481  and  _482
REMARK  202  A    between atoms: _481  and  _484
REMARK  203  A    between atoms: _484  and  _485
REMARK  204  A    between atoms: _489  and  _490
REMARK  205  A    between atoms: _495  and  _497
REMARK  206  A    between atoms: _497  and  _498
REMARK  207  A    between atoms: _497  and  _500
REMARK  208  A    between atoms: _500  and  _501
REMARK  209  A    between atoms: _505  and  _506
REMARK  210  A    between atoms: _511  and  _513
REMARK  211  A    between atoms: _513  and  _514
REMARK  212  A    between atoms: _513  and  _516
REMARK  213  A    between atoms: _519  and  _521
REMARK  214  A    between atoms: _521  and  _522
REMARK  215  A    between atoms: _521  and  _524
REMARK  216  A    between atoms: _524  and  _525
REMARK  217  A    between atoms: _530  and  _532
REMARK  218  A    between atoms: _532  and  _533
REMARK  219  A    between atoms: _532  and  _535
REMARK  220  A    between atoms: _535  and  _536
REMARK  221  A    between atoms: _539  and  _541
REMARK  222  A    between atoms: _541  and  _542
REMARK  223  A    between atoms: _541  and  _544
REMARK  224  A    between atoms: _544  and  _545
REMARK  225  A    between atoms: _548  and  _550
REMARK  226  A    between atoms: _550  and  _551
REMARK  227  A    between atoms: _553  and  _555
REMARK  228  A    between atoms: _555  and  _556
REMARK  229  A    between atoms: _555  and  _558
REMARK  230  A    between atoms: _558  and  _559
REMARK  231  A    between atoms: _559  and  _560
REMARK  232  A    between atoms: _560  and  _561
REMARK  233  A    between atoms: _570  and  _572
REMARK  234  A    between atoms: _572  and  _573
REMARK  235  A    between atoms: _572  and  _575
REMARK  236  A    between atoms: _575  and  _576
REMARK                            x       y       z     vdW  Elec       q    Type
REMARK                         _______ _______ _______ _____ _____    ______ ____
ROOT
ATOM      1  O   HOH     1       5.527  16.851  11.941  0.00  0.00    +0.000 OA
ENDROOT
TORSDOF 0
REMARK  Name = ../refined-set-2016/2avq/2avq_pocket.pdb
REMARK  236 active torsions:
REMARK  status: ('A' for Active; 'I' for Inactive)
REMARK    1  A    between atoms: _1  and  _3
REMARK    2  A    between atoms: _3  and  _4
REMARK    3  A    between atoms: _3  and  _6
REMARK    4  A    between atoms: _6  and  _7
REMARK    5  A    between atoms: _7  and  _8
REMARK    6  A    between atoms: _8  and  _9
REMARK    7  A    between atoms: _18  and  _20
REMARK    8  A    between atoms: _20  and  _21
REMARK    9  A    between atoms: _20  and  _23
REMARK   10  A    between atoms: _23  and  _24
REMARK   11  A    between atoms: _27  and  _29
REMARK   12  A    between atoms: _29  and  _30
REMARK   13  A    between atoms: _29  and  _32
REMARK   14  A    between atoms: _32  and  _33
REMARK   15  A    between atoms: _36  and  _38
REMARK   16  A    between atoms: _38  and  _39
REMARK   17  A    between atoms: _38  and  _41
REMARK   18  A    between atoms: _41  and  _42
REMARK   19  A    between atoms: _45  and  _47
REMARK   20  A    between atoms: _47  and  _48
REMARK   21  A    between atoms: _47  and  _50
REMARK   22  A    between atoms: _50  and  _51
REMARK   23  A    between atoms: _54  and  _56
REMARK   24  A    between atoms: _56  and  _57
REMARK   25  A    between atoms: _56  and  _59
REMARK   26  A    between atoms: _59  and  _60
REMARK   27  A    between atoms: _63  and  _65
REMARK   28  A    between atoms: _65  and  _66
REMARK   29  A    between atoms: _68  and  _70
REMARK   30  A    between atoms: _70  and  _71
REMARK   31  A    between atoms: _74  and  _76
REMARK   32  A    between atoms: _76  and  _77
REMARK   33  A    between atoms: _76  and  _79
REMARK   34  A    between atoms: _79  and  _80
REMARK   35  A    between atoms: _83  and  _85
REMARK   36  A    between atoms: _85  and  _86
REMARK   37  A    between atoms: _85  and  _88
REMARK   38  A    between atoms: _88  and  _89
REMARK   39  A    between atoms: _92  and  _94
REMARK   40  A    between atoms: _94  and  _95
REMARK   41  A    between atoms: _94  and  _97
REMARK   42  A    between atoms: _97  and  _98
REMARK   43  A    between atoms: _101  and  _103
REMARK   44  A    between atoms: _103  and  _104
REMARK   45  A    between atoms: _103  and  _106
REMARK   46  A    between atoms: _109  and  _111
REMARK   47  A    between atoms: _111  and  _112
REMARK   48  A    between atoms: _111  and  _114
REMARK   49  A    between atoms: _114  and  _115
REMARK   50  A    between atoms: _115  and  _116
REMARK   51  A    between atoms: _116  and  _117
REMARK   52  A    between atoms: _117  and  _118
REMARK   53  A    between atoms: _122  and  _124
REMARK   54  A    between atoms: _124  and  _125
REMARK   55  A    between atoms: _124  and  _127
REMARK   56  A    between atoms: _127  and  _128
REMARK   57  A    between atoms: _128  and  _129
REMARK   58  A    between atoms: _131  and  _133
REMARK   59  A    between atoms: _133  and  _134
REMARK   60  A    between atoms: _133  and  _136
REMARK   61  A    between atoms: _136  and  _137
REMARK   62  A    between atoms: _140  and  _142
REMARK   63  A    between atoms: _142  and  _143
REMARK   64  A    between atoms: _145  and  _147
REMARK   65  A    between atoms: _147  and  _148
REMARK   66  A    between atoms: _150  and  _152
REMARK   67  A    between atoms: _152  and  _153
REMARK   68  A    between atoms: _152  and  _155
REMARK   69  A    between atoms: _158  and  _160
REMARK   70  A    between atoms: _160  and  _161
REMARK   71  A    between atoms: _163  and  _165
REMARK   72  A    between atoms: _165  and  _166
REMARK   73  A    between atoms: _168  and  _170
REMARK   74  A    between atoms: _170  and  _171
REMARK   75  A    between atoms: _170  and  _173
REMARK   76  A    between atoms: _173  and  _174
REMARK   77  A    between atoms: _180  and  _182
REMARK   78  A    between atoms: _182  and  _183
REMARK   79  A    between atoms: _182  and  _185
REMARK   80  A    between atoms: _185  and  _186
REMARK   81  A    between atoms: _189  and  _191
REMARK   82  A    between atoms: _191  and  _192
REMARK   83  A    between atoms: _191  and  _194
REMARK   84  A    between atoms: _197  and  _199
REMARK   85  A    between atoms: _199  and  _200
REMARK   86  A    between atoms: _199  and  _202
REMARK   87  A    between atoms: _202  and  _203
REMARK   88  A    between atoms: _206  and  _208
REMARK   89  A    between atoms: _208  and  _209
REMARK   90  A    between atoms: _208  and  _211
REMARK   91  A    between atoms: _211  and  _212
REMARK   92  A    between atoms: _216  and  _217
REMARK   93  A    between atoms: _222  and  _224
REMARK   94  A    between atoms: _224  and  _225
REMARK   95  A    between atoms: _224  and  _227
REMARK   96  A    between atoms: _230  and  _232
REMARK   97  A    between atoms: _232  and  _233
REMARK   98  A    between atoms: _232  and  _235
REMARK   99  A    between atoms: _235  and  _236
REMARK  100  A    between atoms: _241  and  _243
REMARK  101  A    between atoms: _243  and  _244
REMARK  102  A    between atoms: _243  and  _246
REMARK  103  A    between atoms: _246  and  _247
REMARK  104  A    between atoms: _250  and  _252
REMARK  105  A    between atoms: _252  and  _253
REMARK  106  A    between atoms: _252  and  _255
REMARK  107  A    between atoms: _255  and  _256
REMARK  108  A    between atoms: _259  and  _261
REMARK  109  A    between atoms: _261  and  _262
REMARK  110  A    between atoms: _264  and  _266
REMARK  111  A    between atoms: _266  and  _267
REMARK  112  A    between atoms: _266  and  _269
REMARK  113  A    between atoms: _269  and  _270
REMARK  114  A    between atoms: _270  and  _271
REMARK  115  A    between atoms: _271  and  _272
REMARK  116  A    between atoms: _281  and  _283
REMARK  117  A    between atoms: _283  and  _284
REMARK  118  A    between atoms: _283  and  _286
REMARK  119  A    between atoms: _286  and  _287
REMARK  120  A    between atoms: _292  and  _294
REMARK  121  A    between atoms: _294  and  _295
REMARK  122  A    between atoms: _294  and  _297
REMARK  123  A    between atoms: _297  and  _298
REMARK  124  A    between atoms: _298  and  _299
REMARK  125  A    between atoms: _299  and  _300
REMARK  126  A    between atoms: _302  and  _303
REMARK  127  A    between atoms: _309  and  _311
REMARK  128  A    between atoms: _311  and  _312
REMARK  129  A    between atoms: _311  and  _314
REMARK  130  A    between atoms: _314  and  _315
REMARK  131  A    between atoms: _318  and  _320
REMARK  132  A    between atoms: _320  and  _321
REMARK  133  A    between atoms: _320  and  _323
REMARK  134  A    between atoms: _323  and  _324
REMARK  135  A    between atoms: _327  and  _329
REMARK  136  A    between atoms: _329  and  _330
REMARK  137  A    between atoms: _329  and  _332
REMARK  138  A    between atoms: _332  and  _333
REMARK  139  A    between atoms: _336  and  _338
REMARK  140  A    between atoms: _338  and  _339
REMARK  141  A    between atoms: _338  and  _341
REMARK  142  A    between atoms: _341  and  _342
REMARK  143  A    between atoms: _345  and  _347
REMARK  144  A    between atoms: _347  and  _348
REMARK  145  A    between atoms: _350  and  _352
REMARK  146  A    between atoms: _352  and  _353
REMARK  147  A    between atoms: _356  and  _358
REMARK  148  A    between atoms: _358  and  _359
REMARK  149  A    between atoms: _358  and  _361
REMARK  150  A    between atoms: _361  and  _362
REMARK  151  A    between atoms: _365  and  _367
REMARK  152  A    between atoms: _367  and  _368
REMARK  153  A    between atoms: _367  and  _370
REMARK  154  A    between atoms: _370  and  _371
REMARK  155  A    between atoms: _374  and  _376
REMARK  156  A    between atoms: _376  and  _377
REMARK  157  A    between atoms: _376  and  _379
REMARK  158  A    between atoms: _379  and  _380
REMARK  159  A    between atoms: _383  and  _385
REMARK  160  A    between atoms: _385  and  _386
REMARK  161  A    between atoms: _385  and  _388
REMARK  162  A    between atoms: _391  and  _393
REMARK  163  A    between atoms: _393  and  _394
REMARK  164  A    between atoms: _393  and  _396
REMARK  165  A    between atoms: _396  and  _397
REMARK  166  A    between atoms: _397  and  _398
REMARK  167  A    between atoms: _398  and  _399
REMARK  168  A    between atoms: _399  and  _400
REMARK  169  A    between atoms: _404  and  _406
REMARK  170  A    between atoms: _406  and  _407
REMARK  171  A    between atoms: _406  and  _409
REMARK  172  A    between atoms: _409  and  _410
REMARK  173  A    between atoms: _410  and  _411
REMARK  174  A    between atoms: _413  and  _415
REMARK  175  A    between atoms: _415  and  _416
REMARK  176  A    between atoms: _415  and  _418
REMARK  177  A    between atoms: _418  and  _419
REMARK  178  A    between atoms: _422  and  _424
REMARK  179  A    between atoms: _424  and  _425
REMARK  180  A    between atoms: _427  and  _429
REMARK  181  A    between atoms: _429  and  _430
REMARK  182  A    between atoms: _432  and  _434
REMARK  183  A    between atoms: _434  and  _435
REMARK  184  A    between atoms: _434  and  _437
REMARK  185  A    between atoms: _440  and  _442
REMARK  186  A    between atoms: _442  and  _443
REMARK  187  A    between atoms: _445  and  _447
REMARK  188  A    between atoms: _447  and  _448
REMARK  189  A    between atoms: _450  and  _452
REMARK  190  A    between atoms: _452  and  _453
REMARK  191  A    between atoms: _452  and  _455
REMARK  192  A    between atoms: _455  and  _456
REMARK  193  A    between atoms: _462  and  _464
REMARK  194  A    between atoms: _464  and  _465
REMARK  195  A    between atoms: _464  and  _467
REMARK  196  A    between atoms: _467  and  _468
REMARK  197  A    between atoms: _471  and  _473
REMARK  198  A    between atoms: _473  and  _474
REMARK  199  A    between atoms: _473  and  _476
REMARK  200  A    between atoms: _479  and  _481
REMARK  201  A    between atoms: _481  and  _482
REMARK  202  A    between atoms: _481  and  _484
REMARK  203  A    between atoms: _484  and  _485
REMARK  204  A    between atoms: _489  and  _490
REMARK  205  A    between atoms: _495  and  _497
REMARK  206  A    between atoms: _497  and  _498
REMARK  207  A    between atoms: _497  and  _500
REMARK  208  A    between atoms: _500  and  _501
REMARK  209  A    between atoms: _505  and  _506
REMARK  210  A    between atoms: _511  and  _513
REMARK  211  A    between atoms: _513  and  _514
REMARK  212  A    between atoms: _513  and  _516
REMARK  213  A    between atoms: _519  and  _521
REMARK  214  A    between atoms: _521  and  _522
REMARK  215  A    between atoms: _521  and  _524
REMARK  216  A    between atoms: _524  and  _525
REMARK  217  A    between atoms: _530  and  _532
REMARK  218  A    between atoms: _532  and  _533
REMARK  219  A    between atoms: _532  and  _535
REMARK  220  A    between atoms: _535  and  _536
REMARK  221  A    between atoms: _539  and  _541
REMARK  222  A    between atoms: _541  and  _542
REMARK  223  A    between atoms: _541  and  _544
REMARK  224  A    between atoms: _544  and  _545
REMARK  225  A    between atoms: _548  and  _550
REMARK  226  A    between atoms: _550  and  _551
REMARK  227  A    between atoms: _553  and  _555
REMARK  228  A    between atoms: _555  and  _556
REMARK  229  A    between atoms: _555  and  _558
REMARK  230  A    between atoms: _558  and  _559
REMARK  231  A    between atoms: _559  and  _560
REMARK  232  A    between atoms: _560  and  _561
REMARK  233  A    between atoms: _570  and  _572
REMARK  234  A    between atoms: _572  and  _573
REMARK  235  A    between atoms: _572  and  _575
REMARK  236  A    between atoms: _575  and  _576
REMARK                            x       y       z     vdW  Elec       q    Type
REMARK                         _______ _______ _______ _____ _____    ______ ____
ROOT
ATOM      1  O   HOH     1      27.421  24.497  18.566  0.00  0.00    +0.000 OA
ENDROOT
TORSDOF 0
REMARK  Name = ../refined-set-2016/2avq/2avq_pocket.pdb
REMARK  236 active torsions:
REMARK  status: ('A' for Active; 'I' for Inactive)
REMARK    1  A    between atoms: _1  and  _3
REMARK    2  A    between atoms: _3  and  _4
REMARK    3  A    between atoms: _3  and  _6
REMARK    4  A    between atoms: _6  and  _7
REMARK    5  A    between atoms: _7  and  _8
REMARK    6  A    between atoms: _8  and  _9
REMARK    7  A    between atoms: _18  and  _20
REMARK    8  A    between atoms: _20  and  _21
REMARK    9  A    between atoms: _20  and  _23
REMARK   10  A    between atoms: _23  and  _24
REMARK   11  A    between atoms: _27  and  _29
REMARK   12  A    between atoms: _29  and  _30
REMARK   13  A    between atoms: _29  and  _32
REMARK   14  A    between atoms: _32  and  _33
REMARK   15  A    between atoms: _36  and  _38
REMARK   16  A    between atoms: _38  and  _39
REMARK   17  A    between atoms: _38  and  _41
REMARK   18  A    between atoms: _41  and  _42
REMARK   19  A    between atoms: _45  and  _47
REMARK   20  A    between atoms: _47  and  _48
REMARK   21  A    between atoms: _47  and  _50
REMARK   22  A    between atoms: _50  and  _51
REMARK   23  A    between atoms: _54  and  _56
REMARK   24  A    between atoms: _56  and  _57
REMARK   25  A    between atoms: _56  and  _59
REMARK   26  A    between atoms: _59  and  _60
REMARK   27  A    between atoms: _63  and  _65
REMARK   28  A    between atoms: _65  and  _66
REMARK   29  A    between atoms: _68  and  _70
REMARK   30  A    between atoms: _70  and  _71
REMARK   31  A    between atoms: _74  and  _76
REMARK   32  A    between atoms: _76  and  _77
REMARK   33  A    between atoms: _76  and  _79
REMARK   34  A    between atoms: _79  and  _80
REMARK   35  A    between atoms: _83  and  _85
REMARK   36  A    between atoms: _85  and  _86
REMARK   37  A    between atoms: _85  and  _88
REMARK   38  A    between atoms: _88  and  _89
REMARK   39  A    between atoms: _92  and  _94
REMARK   40  A    between atoms: _94  and  _95
REMARK   41  A    between atoms: _94  and  _97
REMARK   42  A    between atoms: _97  and  _98
REMARK   43  A    between atoms: _101  and  _103
REMARK   44  A    between atoms: _103  and  _104
REMARK   45  A    between atoms: _103  and  _106
REMARK   46  A    between atoms: _109  and  _111
REMARK   47  A    between atoms: _111  and  _112
REMARK   48  A    between atoms: _111  and  _114
REMARK   49  A    between atoms: _114  and  _115
REMARK   50  A    between atoms: _115  and  _116
REMARK   51  A    between atoms: _116  and  _117
REMARK   52  A    between atoms: _117  and  _118
REMARK   53  A    between atoms: _122  and  _124
REMARK   54  A    between atoms: _124  and  _125
REMARK   55  A    between atoms: _124  and  _127
REMARK   56  A    between atoms: _127  and  _128
REMARK   57  A    between atoms: _128  and  _129
REMARK   58  A    between atoms: _131  and  _133
REMARK   59  A    between atoms: _133  and  _134
REMARK   60  A    between atoms: _133  and  _136
REMARK   61  A    between atoms: _136  and  _137
REMARK   62  A    between atoms: _140  and  _142
REMARK   63  A    between atoms: _142  and  _143
REMARK   64  A    between atoms: _145  and  _147
REMARK   65  A    between atoms: _147  and  _148
REMARK   66  A    between atoms: _150  and  _152
REMARK   67  A    between atoms: _152  and  _153
REMARK   68  A    between atoms: _152  and  _155
REMARK   69  A    between atoms: _158  and  _160
REMARK   70  A    between atoms: _160  and  _161
REMARK   71  A    between atoms: _163  and  _165
REMARK   72  A    between atoms: _165  and  _166
REMARK   73  A    between atoms: _168  and  _170
REMARK   74  A    between atoms: _170  and  _171
REMARK   75  A    between atoms: _170  and  _173
REMARK   76  A    between atoms: _173  and  _174
REMARK   77  A    between atoms: _180  and  _182
REMARK   78  A    between atoms: _182  and  _183
REMARK   79  A    between atoms: _182  and  _185
REMARK   80  A    between atoms: _185  and  _186
REMARK   81  A    between atoms: _189  and  _191
REMARK   82  A    between atoms: _191  and  _192
REMARK   83  A    between atoms: _191  and  _194
REMARK   84  A    between atoms: _197  and  _199
REMARK   85  A    between atoms: _199  and  _200
REMARK   86  A    between atoms: _199  and  _202
REMARK   87  A    between atoms: _202  and  _203
REMARK   88  A    between atoms: _206  and  _208
REMARK   89  A    between atoms: _208  and  _209
REMARK   90  A    between atoms: _208  and  _211
REMARK   91  A    between atoms: _211  and  _212
REMARK   92  A    between atoms: _216  and  _217
REMARK   93  A    between atoms: _222  and  _224
REMARK   94  A    between atoms: _224  and  _225
REMARK   95  A    between atoms: _224  and  _227
REMARK   96  A    between atoms: _230  and  _232
REMARK   97  A    between atoms: _232  and  _233
REMARK   98  A    between atoms: _232  and  _235
REMARK   99  A    between atoms: _235  and  _236
REMARK  100  A    between atoms: _241  and  _243
REMARK  101  A    between atoms: _243  and  _244
REMARK  102  A    between atoms: _243  and  _246
REMARK  103  A    between atoms: _246  and  _247
REMARK  104  A    between atoms: _250  and  _252
REMARK  105  A    between atoms: _252  and  _253
REMARK  106  A    between atoms: _252  and  _255
REMARK  107  A    between atoms: _255  and  _256
REMARK  108  A    between atoms: _259  and  _261
REMARK  109  A    between atoms: _261  and  _262
REMARK  110  A    between atoms: _264  and  _266
REMARK  111  A    between atoms: _266  and  _267
REMARK  112  A    between atoms: _266  and  _269
REMARK  113  A    between atoms: _269  and  _270
REMARK  114  A    between atoms: _270  and  _271
REMARK  115  A    between atoms: _271  and  _272
REMARK  116  A    between atoms: _281  and  _283
REMARK  117  A    between atoms: _283  and  _284
REMARK  118  A    between atoms: _283  and  _286
REMARK  119  A    between atoms: _286  and  _287
REMARK  120  A    between atoms: _292  and  _294
REMARK  121  A    between atoms: _294  and  _295
REMARK  122  A    between atoms: _294  and  _297
REMARK  123  A    between atoms: _297  and  _298
REMARK  124  A    between atoms: _298  and  _299
REMARK  125  A    between atoms: _299  and  _300
REMARK  126  A    between atoms: _302  and  _303
REMARK  127  A    between atoms: _309  and  _311
REMARK  128  A    between atoms: _311  and  _312
REMARK  129  A    between atoms: _311  and  _314
REMARK  130  A    between atoms: _314  and  _315
REMARK  131  A    between atoms: _318  and  _320
REMARK  132  A    between atoms: _320  and  _321
REMARK  133  A    between atoms: _320  and  _323
REMARK  134  A    between atoms: _323  and  _324
REMARK  135  A    between atoms: _327  and  _329
REMARK  136  A    between atoms: _329  and  _330
REMARK  137  A    between atoms: _329  and  _332
REMARK  138  A    between atoms: _332  and  _333
REMARK  139  A    between atoms: _336  and  _338
REMARK  140  A    between atoms: _338  and  _339
REMARK  141  A    between atoms: _338  and  _341
REMARK  142  A    between atoms: _341  and  _342
REMARK  143  A    between atoms: _345  and  _347
REMARK  144  A    between atoms: _347  and  _348
REMARK  145  A    between atoms: _350  and  _352
REMARK  146  A    between atoms: _352  and  _353
REMARK  147  A    between atoms: _356  and  _358
REMARK  148  A    between atoms: _358  and  _359
REMARK  149  A    between atoms: _358  and  _361
REMARK  150  A    between atoms: _361  and  _362
REMARK  151  A    between atoms: _365  and  _367
REMARK  152  A    between atoms: _367  and  _368
REMARK  153  A    between atoms: _367  and  _370
REMARK  154  A    between atoms: _370  and  _371
REMARK  155  A    between atoms: _374  and  _376
REMARK  156  A    between atoms: _376  and  _377
REMARK  157  A    between atoms: _376  and  _379
REMARK  158  A    between atoms: _379  and  _380
REMARK  159  A    between atoms: _383  and  _385
REMARK  160  A    between atoms: _385  and  _386
REMARK  161  A    between atoms: _385  and  _388
REMARK  162  A    between atoms: _391  and  _393
REMARK  163  A    between atoms: _393  and  _394
REMARK  164  A    between atoms: _393  and  _396
REMARK  165  A    between atoms: _396  and  _397
REMARK  166  A    between atoms: _397  and  _398
REMARK  167  A    between atoms: _398  and  _399
REMARK  168  A    between atoms: _399  and  _400
REMARK  169  A    between atoms: _404  and  _406
REMARK  170  A    between atoms: _406  and  _407
REMARK  171  A    between atoms: _406  and  _409
REMARK  172  A    between atoms: _409  and  _410
REMARK  173  A    between atoms: _410  and  _411
REMARK  174  A    between atoms: _413  and  _415
REMARK  175  A    between atoms: _415  and  _416
REMARK  176  A    between atoms: _415  and  _418
REMARK  177  A    between atoms: _418  and  _419
REMARK  178  A    between atoms: _422  and  _424
REMARK  179  A    between atoms: _424  and  _425
REMARK  180  A    between atoms: _427  and  _429
REMARK  181  A    between atoms: _429  and  _430
REMARK  182  A    between atoms: _432  and  _434
REMARK  183  A    between atoms: _434  and  _435
REMARK  184  A    between atoms: _434  and  _437
REMARK  185  A    between atoms: _440  and  _442
REMARK  186  A    between atoms: _442  and  _443
REMARK  187  A    between atoms: _445  and  _447
REMARK  188  A    between atoms: _447  and  _448
REMARK  189  A    between atoms: _450  and  _452
REMARK  190  A    between atoms: _452  and  _453
REMARK  191  A    between atoms: _452  and  _455
REMARK  192  A    between atoms: _455  and  _456
REMARK  193  A    between atoms: _462  and  _464
REMARK  194  A    between atoms: _464  and  _465
REMARK  195  A    between atoms: _464  and  _467
REMARK  196  A    between atoms: _467  and  _468
REMARK  197  A    between atoms: _471  and  _473
REMARK  198  A    between atoms: _473  and  _474
REMARK  199  A    between atoms: _473  and  _476
REMARK  200  A    between atoms: _479  and  _481
REMARK  201  A    between atoms: _481  and  _482
REMARK  202  A    between atoms: _481  and  _484
REMARK  203  A    between atoms: _484  and  _485
REMARK  204  A    between atoms: _489  and  _490
REMARK  205  A    between atoms: _495  and  _497
REMARK  206  A    between atoms: _497  and  _498
REMARK  207  A    between atoms: _497  and  _500
REMARK  208  A    between atoms: _500  and  _501
REMARK  209  A    between atoms: _505  and  _506
REMARK  210  A    between atoms: _511  and  _513
REMARK  211  A    between atoms: _513  and  _514
REMARK  212  A    between atoms: _513  and  _516
REMARK  213  A    between atoms: _519  and  _521
REMARK  214  A    between atoms: _521  and  _522
REMARK  215  A    between atoms: _521  and  _524
REMARK  216  A    between atoms: _524  and  _525
REMARK  217  A    between atoms: _530  and  _532
REMARK  218  A    between atoms: _532  and  _533
REMARK  219  A    between atoms: _532  and  _535
REMARK  220  A    between atoms: _535  and  _536
REMARK  221  A    between atoms: _539  and  _541
REMARK  222  A    between atoms: _541  and  _542
REMARK  223  A    between atoms: _541  and  _544
REMARK  224  A    between atoms: _544  and  _545
REMARK  225  A    between atoms: _548  and  _550
REMARK  226  A    between atoms: _550  and  _551
REMARK  227  A    between atoms: _553  and  _555
REMARK  228  A    between atoms: _555  and  _556
REMARK  229  A    between atoms: _555  and  _558
REMARK  230  A    between atoms: _558  and  _559
REMARK  231  A    between atoms: _559  and  _560
REMARK  232  A    between atoms: _560  and  _561
REMARK  233  A    between atoms: _570  and  _572
REMARK  234  A    between atoms: _572  and  _573
REMARK  235  A    between atoms: _572  and  _575
REMARK  236  A    between atoms: _575  and  _576
REMARK                            x       y       z     vdW  Elec       q    Type
REMARK                         _______ _______ _______ _____ _____    ______ ____
ROOT
ATOM      1  O   HOH     1       7.939  17.442   8.035  0.00  0.00    +0.000 OA
ENDROOT
TORSDOF 0
REMARK  Name = ../refined-set-2016/2avq/2avq_pocket.pdb
REMARK  236 active torsions:
REMARK  status: ('A' for Active; 'I' for Inactive)
REMARK    1  A    between atoms: _1  and  _3
REMARK    2  A    between atoms: _3  and  _4
REMARK    3  A    between atoms: _3  and  _6
REMARK    4  A    between atoms: _6  and  _7
REMARK    5  A    between atoms: _7  and  _8
REMARK    6  A    between atoms: _8  and  _9
REMARK    7  A    between atoms: _18  and  _20
REMARK    8  A    between atoms: _20  and  _21
REMARK    9  A    between atoms: _20  and  _23
REMARK   10  A    between atoms: _23  and  _24
REMARK   11  A    between atoms: _27  and  _29
REMARK   12  A    between atoms: _29  and  _30
REMARK   13  A    between atoms: _29  and  _32
REMARK   14  A    between atoms: _32  and  _33
REMARK   15  A    between atoms: _36  and  _38
REMARK   16  A    between atoms: _38  and  _39
REMARK   17  A    between atoms: _38  and  _41
REMARK   18  A    between atoms: _41  and  _42
REMARK   19  A    between atoms: _45  and  _47
REMARK   20  A    between atoms: _47  and  _48
REMARK   21  A    between atoms: _47  and  _50
REMARK   22  A    between atoms: _50  and  _51
REMARK   23  A    between atoms: _54  and  _56
REMARK   24  A    between atoms: _56  and  _57
REMARK   25  A    between atoms: _56  and  _59
REMARK   26  A    between atoms: _59  and  _60
REMARK   27  A    between atoms: _63  and  _65
REMARK   28  A    between atoms: _65  and  _66
REMARK   29  A    between atoms: _68  and  _70
REMARK   30  A    between atoms: _70  and  _71
REMARK   31  A    between atoms: _74  and  _76
REMARK   32  A    between atoms: _76  and  _77
REMARK   33  A    between atoms: _76  and  _79
REMARK   34  A    between atoms: _79  and  _80
REMARK   35  A    between atoms: _83  and  _85
REMARK   36  A    between atoms: _85  and  _86
REMARK   37  A    between atoms: _85  and  _88
REMARK   38  A    between atoms: _88  and  _89
REMARK   39  A    between atoms: _92  and  _94
REMARK   40  A    between atoms: _94  and  _95
REMARK   41  A    between atoms: _94  and  _97
REMARK   42  A    between atoms: _97  and  _98
REMARK   43  A    between atoms: _101  and  _103
REMARK   44  A    between atoms: _103  and  _104
REMARK   45  A    between atoms: _103  and  _106
REMARK   46  A    between atoms: _109  and  _111
REMARK   47  A    between atoms: _111  and  _112
REMARK   48  A    between atoms: _111  and  _114
REMARK   49  A    between atoms: _114  and  _115
REMARK   50  A    between atoms: _115  and  _116
REMARK   51  A    between atoms: _116  and  _117
REMARK   52  A    between atoms: _117  and  _118
REMARK   53  A    between atoms: _122  and  _124
REMARK   54  A    between atoms: _124  and  _125
REMARK   55  A    between atoms: _124  and  _127
REMARK   56  A    between atoms: _127  and  _128
REMARK   57  A    between atoms: _128  and  _129
REMARK   58  A    between atoms: _131  and  _133
REMARK   59  A    between atoms: _133  and  _134
REMARK   60  A    between atoms: _133  and  _136
REMARK   61  A    between atoms: _136  and  _137
REMARK   62  A    between atoms: _140  and  _142
REMARK   63  A    between atoms: _142  and  _143
REMARK   64  A    between atoms: _145  and  _147
REMARK   65  A    between atoms: _147  and  _148
REMARK   66  A    between atoms: _150  and  _152
REMARK   67  A    between atoms: _152  and  _153
REMARK   68  A    between atoms: _152  and  _155
REMARK   69  A    between atoms: _158  and  _160
REMARK   70  A    between atoms: _160  and  _161
REMARK   71  A    between atoms: _163  and  _165
REMARK   72  A    between atoms: _165  and  _166
REMARK   73  A    between atoms: _168  and  _170
REMARK   74  A    between atoms: _170  and  _171
REMARK   75  A    between atoms: _170  and  _173
REMARK   76  A    between atoms: _173  and  _174
REMARK   77  A    between atoms: _180  and  _182
REMARK   78  A    between atoms: _182  and  _183
REMARK   79  A    between atoms: _182  and  _185
REMARK   80  A    between atoms: _185  and  _186
REMARK   81  A    between atoms: _189  and  _191
REMARK   82  A    between atoms: _191  and  _192
REMARK   83  A    between atoms: _191  and  _194
REMARK   84  A    between atoms: _197  and  _199
REMARK   85  A    between atoms: _199  and  _200
REMARK   86  A    between atoms: _199  and  _202
REMARK   87  A    between atoms: _202  and  _203
REMARK   88  A    between atoms: _206  and  _208
REMARK   89  A    between atoms: _208  and  _209
REMARK   90  A    between atoms: _208  and  _211
REMARK   91  A    between atoms: _211  and  _212
REMARK   92  A    between atoms: _216  and  _217
REMARK   93  A    between atoms: _222  and  _224
REMARK   94  A    between atoms: _224  and  _225
REMARK   95  A    between atoms: _224  and  _227
REMARK   96  A    between atoms: _230  and  _232
REMARK   97  A    between atoms: _232  and  _233
REMARK   98  A    between atoms: _232  and  _235
REMARK   99  A    between atoms: _235  and  _236
REMARK  100  A    between atoms: _241  and  _243
REMARK  101  A    between atoms: _243  and  _244
REMARK  102  A    between atoms: _243  and  _246
REMARK  103  A    between atoms: _246  and  _247
REMARK  104  A    between atoms: _250  and  _252
REMARK  105  A    between atoms: _252  and  _253
REMARK  106  A    between atoms: _252  and  _255
REMARK  107  A    between atoms: _255  and  _256
REMARK  108  A    between atoms: _259  and  _261
REMARK  109  A    between atoms: _261  and  _262
REMARK  110  A    between atoms: _264  and  _266
REMARK  111  A    between atoms: _266  and  _267
REMARK  112  A    between atoms: _266  and  _269
REMARK  113  A    between atoms: _269  and  _270
REMARK  114  A    between atoms: _270  and  _271
REMARK  115  A    between atoms: _271  and  _272
REMARK  116  A    between atoms: _281  and  _283
REMARK  117  A    between atoms: _283  and  _284
REMARK  118  A    between atoms: _283  and  _286
REMARK  119  A    between atoms: _286  and  _287
REMARK  120  A    between atoms: _292  and  _294
REMARK  121  A    between atoms: _294  and  _295
REMARK  122  A    between atoms: _294  and  _297
REMARK  123  A    between atoms: _297  and  _298
REMARK  124  A    between atoms: _298  and  _299
REMARK  125  A    between atoms: _299  and  _300
REMARK  126  A    between atoms: _302  and  _303
REMARK  127  A    between atoms: _309  and  _311
REMARK  128  A    between atoms: _311  and  _312
REMARK  129  A    between atoms: _311  and  _314
REMARK  130  A    between atoms: _314  and  _315
REMARK  131  A    between atoms: _318  and  _320
REMARK  132  A    between atoms: _320  and  _321
REMARK  133  A    between atoms: _320  and  _323
REMARK  134  A    between atoms: _323  and  _324
REMARK  135  A    between atoms: _327  and  _329
REMARK  136  A    between atoms: _329  and  _330
REMARK  137  A    between atoms: _329  and  _332
REMARK  138  A    between atoms: _332  and  _333
REMARK  139  A    between atoms: _336  and  _338
REMARK  140  A    between atoms: _338  and  _339
REMARK  141  A    between atoms: _338  and  _341
REMARK  142  A    between atoms: _341  and  _342
REMARK  143  A    between atoms: _345  and  _347
REMARK  144  A    between atoms: _347  and  _348
REMARK  145  A    between atoms: _350  and  _352
REMARK  146  A    between atoms: _352  and  _353
REMARK  147  A    between atoms: _356  and  _358
REMARK  148  A    between atoms: _358  and  _359
REMARK  149  A    between atoms: _358  and  _361
REMARK  150  A    between atoms: _361  and  _362
REMARK  151  A    between atoms: _365  and  _367
REMARK  152  A    between atoms: _367  and  _368
REMARK  153  A    between atoms: _367  and  _370
REMARK  154  A    between atoms: _370  and  _371
REMARK  155  A    between atoms: _374  and  _376
REMARK  156  A    between atoms: _376  and  _377
REMARK  157  A    between atoms: _376  and  _379
REMARK  158  A    between atoms: _379  and  _380
REMARK  159  A    between atoms: _383  and  _385
REMARK  160  A    between atoms: _385  and  _386
REMARK  161  A    between atoms: _385  and  _388
REMARK  162  A    between atoms: _391  and  _393
REMARK  163  A    between atoms: _393  and  _394
REMARK  164  A    between atoms: _393  and  _396
REMARK  165  A    between atoms: _396  and  _397
REMARK  166  A    between atoms: _397  and  _398
REMARK  167  A    between atoms: _398  and  _399
REMARK  168  A    between atoms: _399  and  _400
REMARK  169  A    between atoms: _404  and  _406
REMARK  170  A    between atoms: _406  and  _407
REMARK  171  A    between atoms: _406  and  _409
REMARK  172  A    between atoms: _409  and  _410
REMARK  173  A    between atoms: _410  and  _411
REMARK  174  A    between atoms: _413  and  _415
REMARK  175  A    between atoms: _415  and  _416
REMARK  176  A    between atoms: _415  and  _418
REMARK  177  A    between atoms: _418  and  _419
REMARK  178  A    between atoms: _422  and  _424
REMARK  179  A    between atoms: _424  and  _425
REMARK  180  A    between atoms: _427  and  _429
REMARK  181  A    between atoms: _429  and  _430
REMARK  182  A    between atoms: _432  and  _434
REMARK  183  A    between atoms: _434  and  _435
REMARK  184  A    between atoms: _434  and  _437
REMARK  185  A    between atoms: _440  and  _442
REMARK  186  A    between atoms: _442  and  _443
REMARK  187  A    between atoms: _445  and  _447
REMARK  188  A    between atoms: _447  and  _448
REMARK  189  A    between atoms: _450  and  _452
REMARK  190  A    between atoms: _452  and  _453
REMARK  191  A    between atoms: _452  and  _455
REMARK  192  A    between atoms: _455  and  _456
REMARK  193  A    between atoms: _462  and  _464
REMARK  194  A    between atoms: _464  and  _465
REMARK  195  A    between atoms: _464  and  _467
REMARK  196  A    between atoms: _467  and  _468
REMARK  197  A    between atoms: _471  and  _473
REMARK  198  A    between atoms: _473  and  _474
REMARK  199  A    between atoms: _473  and  _476
REMARK  200  A    between atoms: _479  and  _481
REMARK  201  A    between atoms: _481  and  _482
REMARK  202  A    between atoms: _481  and  _484
REMARK  203  A    between atoms: _484  and  _485
REMARK  204  A    between atoms: _489  and  _490
REMARK  205  A    between atoms: _495  and  _497
REMARK  206  A    between atoms: _497  and  _498
REMARK  207  A    between atoms: _497  and  _500
REMARK  208  A    between atoms: _500  and  _501
REMARK  209  A    between atoms: _505  and  _506
REMARK  210  A    between atoms: _511  and  _513
REMARK  211  A    between atoms: _513  and  _514
REMARK  212  A    between atoms: _513  and  _516
REMARK  213  A    between atoms: _519  and  _521
REMARK  214  A    between atoms: _521  and  _522
REMARK  215  A    between atoms: _521  and  _524
REMARK  216  A    between atoms: _524  and  _525
REMARK  217  A    between atoms: _530  and  _532
REMARK  218  A    between atoms: _532  and  _533
REMARK  219  A    between atoms: _532  and  _535
REMARK  220  A    between atoms: _535  and  _536
REMARK  221  A    between atoms: _539  and  _541
REMARK  222  A    between atoms: _541  and  _542
REMARK  223  A    between atoms: _541  and  _544
REMARK  224  A    between atoms: _544  and  _545
REMARK  225  A    between atoms: _548  and  _550
REMARK  226  A    between atoms: _550  and  _551
REMARK  227  A    between atoms: _553  and  _555
REMARK  228  A    between atoms: _555  and  _556
REMARK  229  A    between atoms: _555  and  _558
REMARK  230  A    between atoms: _558  and  _559
REMARK  231  A    between atoms: _559  and  _560
REMARK  232  A    between atoms: _560  and  _561
REMARK  233  A    between atoms: _570  and  _572
REMARK  234  A    between atoms: _572  and  _573
REMARK  235  A    between atoms: _572  and  _575
REMARK  236  A    between atoms: _575  and  _576
REMARK                            x       y       z     vdW  Elec       q    Type
REMARK                         _______ _______ _______ _____ _____    ______ ____
ROOT
ATOM      1  O   HOH     1      11.144  10.990  15.386  0.00  0.00    +0.000 OA
ENDROOT
TORSDOF 0
