REMARK  Name = ../refined-set-2016/2i4j/2i4j_pocket.pdb
REMARK  274 active torsions:
REMARK  status: ('A' for Active; 'I' for Inactive)
REMARK    1  A    between atoms: _1  and  _3
REMARK    2  A    between atoms: _3  and  _4
REMARK    3  A    between atoms: _3  and  _6
REMARK    4  A    between atoms: _6  and  _7
REMARK    5  A    between atoms: _12  and  _13
REMARK    6  A    between atoms: _15  and  _17
REMARK    7  A    between atoms: _17  and  _18
REMARK    8  A    between atoms: _17  and  _20
REMARK    9  A    between atoms: _20  and  _21
REMARK   10  A    between atoms: _23  and  _25
REMARK   11  A    between atoms: _25  and  _26
REMARK   12  A    between atoms: _25  and  _28
REMARK   13  A    between atoms: _28  and  _29
REMARK   14  A    between atoms: _36  and  _37
REMARK   15  A    between atoms: _42  and  _44
REMARK   16  A    between atoms: _44  and  _45
REMARK   17  A    between atoms: _44  and  _47
REMARK   18  A    between atoms: _47  and  _48
REMARK   19  A    between atoms: _51  and  _53
REMARK   20  A    between atoms: _53  and  _54
REMARK   21  A    between atoms: _53  and  _56
REMARK   22  A    between atoms: _56  and  _57
REMARK   23  A    between atoms: _60  and  _62
REMARK   24  A    between atoms: _62  and  _63
REMARK   25  A    between atoms: _62  and  _65
REMARK   26  A    between atoms: _65  and  _66
REMARK   27  A    between atoms: _72  and  _74
REMARK   28  A    between atoms: _74  and  _75
REMARK   29  A    between atoms: _74  and  _77
REMARK   30  A    between atoms: _77  and  _78
REMARK   31  A    between atoms: _78  and  _79
REMARK   32  A    between atoms: _84  and  _86
REMARK   33  A    between atoms: _86  and  _87
REMARK   34  A    between atoms: _89  and  _91
REMARK   35  A    between atoms: _91  and  _92
REMARK   36  A    between atoms: _91  and  _94
REMARK   37  A    between atoms: _96  and  _98
REMARK   38  A    between atoms: _98  and  _99
REMARK   39  A    between atoms: _98  and  _101
REMARK   40  A    between atoms: _101  and  _102
REMARK   41  A    between atoms: _102  and  _103
REMARK   42  A    between atoms: _108  and  _110
REMARK   43  A    between atoms: _110  and  _111
REMARK   44  A    between atoms: _110  and  _113
REMARK   45  A    between atoms: _113  and  _114
REMARK   46  A    between atoms: _120  and  _122
REMARK   47  A    between atoms: _122  and  _123
REMARK   48  A    between atoms: _122  and  _125
REMARK   49  A    between atoms: _125  and  _126
REMARK   50  A    between atoms: _126  and  _127
REMARK   51  A    between atoms: _127  and  _128
REMARK   52  A    between atoms: _137  and  _139
REMARK   53  A    between atoms: _139  and  _140
REMARK   54  A    between atoms: _139  and  _142
REMARK   55  A    between atoms: _142  and  _143
REMARK   56  A    between atoms: _145  and  _147
REMARK   57  A    between atoms: _147  and  _148
REMARK   58  A    between atoms: _147  and  _150
REMARK   59  A    between atoms: _153  and  _155
REMARK   60  A    between atoms: _155  and  _156
REMARK   61  A    between atoms: _155  and  _158
REMARK   62  A    between atoms: _158  and  _159
REMARK   63  A    between atoms: _159  and  _160
REMARK   64  A    between atoms: _163  and  _165
REMARK   65  A    between atoms: _165  and  _166
REMARK   66  A    between atoms: _169  and  _171
REMARK   67  A    between atoms: _171  and  _172
REMARK   68  A    between atoms: _171  and  _174
REMARK   69  A    between atoms: _177  and  _179
REMARK   70  A    between atoms: _179  and  _180
REMARK   71  A    between atoms: _179  and  _182
REMARK   72  A    between atoms: _182  and  _183
REMARK   73  A    between atoms: _183  and  _184
REMARK   74  A    between atoms: _189  and  _191
REMARK   75  A    between atoms: _191  and  _192
REMARK   76  A    between atoms: _191  and  _194
REMARK   77  A    between atoms: _194  and  _195
REMARK   78  A    between atoms: _195  and  _196
REMARK   79  A    between atoms: _199  and  _201
REMARK   80  A    between atoms: _201  and  _202
REMARK   81  A    between atoms: _201  and  _204
REMARK   82  A    between atoms: _204  and  _205
REMARK   83  A    between atoms: _208  and  _210
REMARK   84  A    between atoms: _210  and  _211
REMARK   85  A    between atoms: _210  and  _213
REMARK   86  A    between atoms: _213  and  _214
REMARK   87  A    between atoms: _217  and  _219
REMARK   88  A    between atoms: _219  and  _220
REMARK   89  A    between atoms: _219  and  _222
REMARK   90  A    between atoms: _222  and  _223
REMARK   91  A    between atoms: _228  and  _229
REMARK   92  A    between atoms: _231  and  _233
REMARK   93  A    between atoms: _233  and  _234
REMARK   94  A    between atoms: _233  and  _236
REMARK   95  A    between atoms: _239  and  _241
REMARK   96  A    between atoms: _241  and  _242
REMARK   97  A    between atoms: _241  and  _244
REMARK   98  A    between atoms: _244  and  _245
REMARK   99  A    between atoms: _250  and  _252
REMARK  100  A    between atoms: _252  and  _253
REMARK  101  A    between atoms: _252  and  _255
REMARK  102  A    between atoms: _255  and  _256
REMARK  103  A    between atoms: _256  and  _257
REMARK  104  A    between atoms: _260  and  _262
REMARK  105  A    between atoms: _262  and  _263
REMARK  106  A    between atoms: _262  and  _265
REMARK  107  A    between atoms: _265  and  _266
REMARK  108  A    between atoms: _269  and  _271
REMARK  109  A    between atoms: _271  and  _272
REMARK  110  A    between atoms: _271  and  _274
REMARK  111  A    between atoms: _274  and  _275
REMARK  112  A    between atoms: _278  and  _280
REMARK  113  A    between atoms: _280  and  _281
REMARK  114  A    between atoms: _280  and  _283
REMARK  115  A    between atoms: _283  and  _284
REMARK  116  A    between atoms: _289  and  _290
REMARK  117  A    between atoms: _292  and  _294
REMARK  118  A    between atoms: _294  and  _295
REMARK  119  A    between atoms: _294  and  _297
REMARK  120  A    between atoms: _297  and  _298
REMARK  121  A    between atoms: _301  and  _303
REMARK  122  A    between atoms: _303  and  _304
REMARK  123  A    between atoms: _303  and  _306
REMARK  124  A    between atoms: _306  and  _307
REMARK  125  A    between atoms: _307  and  _308
REMARK  126  A    between atoms: _310  and  _312
REMARK  127  A    between atoms: _312  and  _313
REMARK  128  A    between atoms: _312  and  _315
REMARK  129  A    between atoms: _315  and  _316
REMARK  130  A    between atoms: _319  and  _321
REMARK  131  A    between atoms: _321  and  _322
REMARK  132  A    between atoms: _325  and  _327
REMARK  133  A    between atoms: _327  and  _328
REMARK  134  A    between atoms: _327  and  _330
REMARK  135  A    between atoms: _330  and  _331
REMARK  136  A    between atoms: _333  and  _335
REMARK  137  A    between atoms: _335  and  _336
REMARK  138  A    between atoms: _335  and  _338
REMARK  139  A    between atoms: _338  and  _339
REMARK  140  A    between atoms: _342  and  _344
REMARK  141  A    between atoms: _344  and  _345
REMARK  142  A    between atoms: _344  and  _347
REMARK  143  A    between atoms: _347  and  _348
REMARK  144  A    between atoms: _348  and  _349
REMARK  145  A    between atoms: _351  and  _353
REMARK  146  A    between atoms: _353  and  _354
REMARK  147  A    between atoms: _356  and  _358
REMARK  148  A    between atoms: _358  and  _359
REMARK  149  A    between atoms: _358  and  _361
REMARK  150  A    between atoms: _364  and  _366
REMARK  151  A    between atoms: _366  and  _367
REMARK  152  A    between atoms: _366  and  _369
REMARK  153  A    between atoms: _369  and  _370
REMARK  154  A    between atoms: _373  and  _375
REMARK  155  A    between atoms: _375  and  _376
REMARK  156  A    between atoms: _375  and  _378
REMARK  157  A    between atoms: _378  and  _379
REMARK  158  A    between atoms: _382  and  _384
REMARK  159  A    between atoms: _384  and  _385
REMARK  160  A    between atoms: _384  and  _387
REMARK  161  A    between atoms: _387  and  _388
REMARK  162  A    between atoms: _390  and  _392
REMARK  163  A    between atoms: _392  and  _393
REMARK  164  A    between atoms: _392  and  _395
REMARK  165  A    between atoms: _395  and  _396
REMARK  166  A    between atoms: _396  and  _397
REMARK  167  A    between atoms: _400  and  _402
REMARK  168  A    between atoms: _402  and  _403
REMARK  169  A    between atoms: _405  and  _407
REMARK  170  A    between atoms: _407  and  _408
REMARK  171  A    between atoms: _407  and  _410
REMARK  172  A    between atoms: _410  and  _411
REMARK  173  A    between atoms: _417  and  _419
REMARK  174  A    between atoms: _419  and  _420
REMARK  175  A    between atoms: _419  and  _422
REMARK  176  A    between atoms: _422  and  _423
REMARK  177  A    between atoms: _423  and  _424
REMARK  178  A    between atoms: _426  and  _428
REMARK  179  A    between atoms: _428  and  _429
REMARK  180  A    between atoms: _428  and  _431
REMARK  181  A    between atoms: _431  and  _432
REMARK  182  A    between atoms: _435  and  _437
REMARK  183  A    between atoms: _437  and  _438
REMARK  184  A    between atoms: _437  and  _440
REMARK  185  A    between atoms: _440  and  _441
REMARK  186  A    between atoms: _447  and  _449
REMARK  187  A    between atoms: _449  and  _450
REMARK  188  A    between atoms: _449  and  _452
REMARK  189  A    between atoms: _452  and  _453
REMARK  190  A    between atoms: _456  and  _458
REMARK  191  A    between atoms: _458  and  _459
REMARK  192  A    between atoms: _458  and  _461
REMARK  193  A    between atoms: _461  and  _462
REMARK  194  A    between atoms: _465  and  _467
REMARK  195  A    between atoms: _467  and  _468
REMARK  196  A    between atoms: _467  and  _470
REMARK  197  A    between atoms: _470  and  _471
REMARK  198  A    between atoms: _477  and  _479
REMARK  199  A    between atoms: _479  and  _480
REMARK  200  A    between atoms: _479  and  _482
REMARK  201  A    between atoms: _482  and  _483
REMARK  202  A    between atoms: _483  and  _484
REMARK  203  A    between atoms: _486  and  _488
REMARK  204  A    between atoms: _488  and  _489
REMARK  205  A    between atoms: _488  and  _491
REMARK  206  A    between atoms: _491  and  _492
REMARK  207  A    between atoms: _492  and  _493
REMARK  208  A    between atoms: _493  and  _494
REMARK  209  A    between atoms: _494  and  _495
REMARK  210  A    between atoms: _499  and  _501
REMARK  211  A    between atoms: _501  and  _502
REMARK  212  A    between atoms: _501  and  _504
REMARK  213  A    between atoms: _504  and  _505
REMARK  214  A    between atoms: _511  and  _513
REMARK  215  A    between atoms: _513  and  _514
REMARK  216  A    between atoms: _513  and  _516
REMARK  217  A    between atoms: _516  and  _517
REMARK  218  A    between atoms: _520  and  _522
REMARK  219  A    between atoms: _522  and  _523
REMARK  220  A    between atoms: _522  and  _525
REMARK  221  A    between atoms: _528  and  _530
REMARK  222  A    between atoms: _530  and  _531
REMARK  223  A    between atoms: _530  and  _533
REMARK  224  A    between atoms: _533  and  _534
REMARK  225  A    between atoms: _539  and  _541
REMARK  226  A    between atoms: _541  and  _542
REMARK  227  A    between atoms: _541  and  _544
REMARK  228  A    between atoms: _547  and  _549
REMARK  229  A    between atoms: _549  and  _550
REMARK  230  A    between atoms: _549  and  _552
REMARK  231  A    between atoms: _552  and  _553
REMARK  232  A    between atoms: _556  and  _558
REMARK  233  A    between atoms: _558  and  _559
REMARK  234  A    between atoms: _558  and  _561
REMARK  235  A    between atoms: _561  and  _562
REMARK  236  A    between atoms: _565  and  _567
REMARK  237  A    between atoms: _567  and  _568
REMARK  238  A    between atoms: _567  and  _570
REMARK  239  A    between atoms: _570  and  _571
REMARK  240  A    between atoms: _571  and  _572
REMARK  241  A    between atoms: _574  and  _576
REMARK  242  A    between atoms: _576  and  _577
REMARK  243  A    between atoms: _576  and  _579
REMARK  244  A    between atoms: _579  and  _580
REMARK  245  A    between atoms: _582  and  _584
REMARK  246  A    between atoms: _584  and  _585
REMARK  247  A    between atoms: _584  and  _587
REMARK  248  A    between atoms: _587  and  _588
REMARK  249  A    between atoms: _591  and  _593
REMARK  250  A    between atoms: _593  and  _594
REMARK  251  A    between atoms: _593  and  _596
REMARK  252  A    between atoms: _596  and  _597
REMARK  253  A    between atoms: _602  and  _604
REMARK  254  A    between atoms: _604  and  _605
REMARK  255  A    between atoms: _604  and  _607
REMARK  256  A    between atoms: _607  and  _608
REMARK  257  A    between atoms: _611  and  _613
REMARK  258  A    between atoms: _613  and  _614
REMARK  259  A    between atoms: _613  and  _616
REMARK  260  A    between atoms: _616  and  _617
REMARK  261  A    between atoms: _620  and  _622
REMARK  262  A    between atoms: _622  and  _623
REMARK  263  A    between atoms: _622  and  _625
REMARK  264  A    between atoms: _625  and  _626
REMARK  265  A    between atoms: _626  and  _627
REMARK  266  A    between atoms: _632  and  _634
REMARK  267  A    between atoms: _634  and  _635
REMARK  268  A    between atoms: _634  and  _637
REMARK  269  A    between atoms: _637  and  _638
REMARK  270  A    between atoms: _641  and  _643
REMARK  271  A    between atoms: _643  and  _644
REMARK  272  A    between atoms: _643  and  _646
REMARK  273  A    between atoms: _646  and  _647
REMARK  274  A    between atoms: _652  and  _653
REMARK                            x       y       z     vdW  Elec       q    Type
REMARK                         _______ _______ _______ _____ _____    ______ ____
ROOT
ATOM      1  CG  TYR A   1       2.014   7.406  15.839  0.00  0.00    -0.020 A 
ATOM      2  CD2 TYR A   1       3.299   7.214  16.355  0.00  0.00    -0.001 A 
ATOM      3  CE2 TYR A   1       4.400   7.040  15.508  0.00  0.00    +0.036 A 
ATOM      4  CZ  TYR A   1       4.218   7.070  14.135  0.00  0.00    +0.134 A 
ATOM      5  CE1 TYR A   1       2.955   7.278  13.597  0.00  0.00    +0.036 A 
ATOM      6  CD1 TYR A   1       1.862   7.445  14.449  0.00  0.00    -0.001 A 
ENDROOT
BRANCH   4   7
ATOM      7  OH  TYR A   1       5.284   6.876  13.294  0.00  0.00    -0.506 OA
ATOM      8  HH  TYR A   1       5.120   6.076  12.735  0.00  0.00    +0.292 HD
ENDBRANCH   4   7
BRANCH   1   9
ATOM      9  CB  TYR A   1       0.804   7.425  16.747  0.00  0.00    +0.051 C 
BRANCH   9  10
ATOM     10  CA  TYR A   1       0.201   8.789  17.099  0.00  0.00    +0.137 C 
BRANCH  10  11
ATOM     11  N   TYR A   1      -1.040   8.560  17.836  0.00  0.00    -0.239 NA
ATOM     12  H   TYR A   1      -1.371   7.583  17.964  0.00  0.00    +0.142 HD
ENDBRANCH  10  11
BRANCH  10  13
ATOM     13  C   TYR A   1      -0.112   9.604  15.825  0.00  0.00    +0.224 C 
ATOM     14  O   TYR A   1       0.544  10.610  15.535  0.00  0.00    -0.287 OA
ENDBRANCH  10  13
ENDBRANCH   9  10
ENDBRANCH   1   9
TORSDOF 5
REMARK  Name = ../refined-set-2016/2i4j/2i4j_pocket.pdb
REMARK  274 active torsions:
REMARK  status: ('A' for Active; 'I' for Inactive)
REMARK    1  A    between atoms: _1  and  _3
REMARK    2  A    between atoms: _3  and  _4
REMARK    3  A    between atoms: _3  and  _6
REMARK    4  A    between atoms: _6  and  _7
REMARK    5  A    between atoms: _12  and  _13
REMARK    6  A    between atoms: _15  and  _17
REMARK    7  A    between atoms: _17  and  _18
REMARK    8  A    between atoms: _17  and  _20
REMARK    9  A    between atoms: _20  and  _21
REMARK   10  A    between atoms: _23  and  _25
REMARK   11  A    between atoms: _25  and  _26
REMARK   12  A    between atoms: _25  and  _28
REMARK   13  A    between atoms: _28  and  _29
REMARK   14  A    between atoms: _36  and  _37
REMARK   15  A    between atoms: _42  and  _44
REMARK   16  A    between atoms: _44  and  _45
REMARK   17  A    between atoms: _44  and  _47
REMARK   18  A    between atoms: _47  and  _48
REMARK   19  A    between atoms: _51  and  _53
REMARK   20  A    between atoms: _53  and  _54
REMARK   21  A    between atoms: _53  and  _56
REMARK   22  A    between atoms: _56  and  _57
REMARK   23  A    between atoms: _60  and  _62
REMARK   24  A    between atoms: _62  and  _63
REMARK   25  A    between atoms: _62  and  _65
REMARK   26  A    between atoms: _65  and  _66
REMARK   27  A    between atoms: _72  and  _74
REMARK   28  A    between atoms: _74  and  _75
REMARK   29  A    between atoms: _74  and  _77
REMARK   30  A    between atoms: _77  and  _78
REMARK   31  A    between atoms: _78  and  _79
REMARK   32  A    between atoms: _84  and  _86
REMARK   33  A    between atoms: _86  and  _87
REMARK   34  A    between atoms: _89  and  _91
REMARK   35  A    between atoms: _91  and  _92
REMARK   36  A    between atoms: _91  and  _94
REMARK   37  A    between atoms: _96  and  _98
REMARK   38  A    between atoms: _98  and  _99
REMARK   39  A    between atoms: _98  and  _101
REMARK   40  A    between atoms: _101  and  _102
REMARK   41  A    between atoms: _102  and  _103
REMARK   42  A    between atoms: _108  and  _110
REMARK   43  A    between atoms: _110  and  _111
REMARK   44  A    between atoms: _110  and  _113
REMARK   45  A    between atoms: _113  and  _114
REMARK   46  A    between atoms: _120  and  _122
REMARK   47  A    between atoms: _122  and  _123
REMARK   48  A    between atoms: _122  and  _125
REMARK   49  A    between atoms: _125  and  _126
REMARK   50  A    between atoms: _126  and  _127
REMARK   51  A    between atoms: _127  and  _128
REMARK   52  A    between atoms: _137  and  _139
REMARK   53  A    between atoms: _139  and  _140
REMARK   54  A    between atoms: _139  and  _142
REMARK   55  A    between atoms: _142  and  _143
REMARK   56  A    between atoms: _145  and  _147
REMARK   57  A    between atoms: _147  and  _148
REMARK   58  A    between atoms: _147  and  _150
REMARK   59  A    between atoms: _153  and  _155
REMARK   60  A    between atoms: _155  and  _156
REMARK   61  A    between atoms: _155  and  _158
REMARK   62  A    between atoms: _158  and  _159
REMARK   63  A    between atoms: _159  and  _160
REMARK   64  A    between atoms: _163  and  _165
REMARK   65  A    between atoms: _165  and  _166
REMARK   66  A    between atoms: _169  and  _171
REMARK   67  A    between atoms: _171  and  _172
REMARK   68  A    between atoms: _171  and  _174
REMARK   69  A    between atoms: _177  and  _179
REMARK   70  A    between atoms: _179  and  _180
REMARK   71  A    between atoms: _179  and  _182
REMARK   72  A    between atoms: _182  and  _183
REMARK   73  A    between atoms: _183  and  _184
REMARK   74  A    between atoms: _189  and  _191
REMARK   75  A    between atoms: _191  and  _192
REMARK   76  A    between atoms: _191  and  _194
REMARK   77  A    between atoms: _194  and  _195
REMARK   78  A    between atoms: _195  and  _196
REMARK   79  A    between atoms: _199  and  _201
REMARK   80  A    between atoms: _201  and  _202
REMARK   81  A    between atoms: _201  and  _204
REMARK   82  A    between atoms: _204  and  _205
REMARK   83  A    between atoms: _208  and  _210
REMARK   84  A    between atoms: _210  and  _211
REMARK   85  A    between atoms: _210  and  _213
REMARK   86  A    between atoms: _213  and  _214
REMARK   87  A    between atoms: _217  and  _219
REMARK   88  A    between atoms: _219  and  _220
REMARK   89  A    between atoms: _219  and  _222
REMARK   90  A    between atoms: _222  and  _223
REMARK   91  A    between atoms: _228  and  _229
REMARK   92  A    between atoms: _231  and  _233
REMARK   93  A    between atoms: _233  and  _234
REMARK   94  A    between atoms: _233  and  _236
REMARK   95  A    between atoms: _239  and  _241
REMARK   96  A    between atoms: _241  and  _242
REMARK   97  A    between atoms: _241  and  _244
REMARK   98  A    between atoms: _244  and  _245
REMARK   99  A    between atoms: _250  and  _252
REMARK  100  A    between atoms: _252  and  _253
REMARK  101  A    between atoms: _252  and  _255
REMARK  102  A    between atoms: _255  and  _256
REMARK  103  A    between atoms: _256  and  _257
REMARK  104  A    between atoms: _260  and  _262
REMARK  105  A    between atoms: _262  and  _263
REMARK  106  A    between atoms: _262  and  _265
REMARK  107  A    between atoms: _265  and  _266
REMARK  108  A    between atoms: _269  and  _271
REMARK  109  A    between atoms: _271  and  _272
REMARK  110  A    between atoms: _271  and  _274
REMARK  111  A    between atoms: _274  and  _275
REMARK  112  A    between atoms: _278  and  _280
REMARK  113  A    between atoms: _280  and  _281
REMARK  114  A    between atoms: _280  and  _283
REMARK  115  A    between atoms: _283  and  _284
REMARK  116  A    between atoms: _289  and  _290
REMARK  117  A    between atoms: _292  and  _294
REMARK  118  A    between atoms: _294  and  _295
REMARK  119  A    between atoms: _294  and  _297
REMARK  120  A    between atoms: _297  and  _298
REMARK  121  A    between atoms: _301  and  _303
REMARK  122  A    between atoms: _303  and  _304
REMARK  123  A    between atoms: _303  and  _306
REMARK  124  A    between atoms: _306  and  _307
REMARK  125  A    between atoms: _307  and  _308
REMARK  126  A    between atoms: _310  and  _312
REMARK  127  A    between atoms: _312  and  _313
REMARK  128  A    between atoms: _312  and  _315
REMARK  129  A    between atoms: _315  and  _316
REMARK  130  A    between atoms: _319  and  _321
REMARK  131  A    between atoms: _321  and  _322
REMARK  132  A    between atoms: _325  and  _327
REMARK  133  A    between atoms: _327  and  _328
REMARK  134  A    between atoms: _327  and  _330
REMARK  135  A    between atoms: _330  and  _331
REMARK  136  A    between atoms: _333  and  _335
REMARK  137  A    between atoms: _335  and  _336
REMARK  138  A    between atoms: _335  and  _338
REMARK  139  A    between atoms: _338  and  _339
REMARK  140  A    between atoms: _342  and  _344
REMARK  141  A    between atoms: _344  and  _345
REMARK  142  A    between atoms: _344  and  _347
REMARK  143  A    between atoms: _347  and  _348
REMARK  144  A    between atoms: _348  and  _349
REMARK  145  A    between atoms: _351  and  _353
REMARK  146  A    between atoms: _353  and  _354
REMARK  147  A    between atoms: _356  and  _358
REMARK  148  A    between atoms: _358  and  _359
REMARK  149  A    between atoms: _358  and  _361
REMARK  150  A    between atoms: _364  and  _366
REMARK  151  A    between atoms: _366  and  _367
REMARK  152  A    between atoms: _366  and  _369
REMARK  153  A    between atoms: _369  and  _370
REMARK  154  A    between atoms: _373  and  _375
REMARK  155  A    between atoms: _375  and  _376
REMARK  156  A    between atoms: _375  and  _378
REMARK  157  A    between atoms: _378  and  _379
REMARK  158  A    between atoms: _382  and  _384
REMARK  159  A    between atoms: _384  and  _385
REMARK  160  A    between atoms: _384  and  _387
REMARK  161  A    between atoms: _387  and  _388
REMARK  162  A    between atoms: _390  and  _392
REMARK  163  A    between atoms: _392  and  _393
REMARK  164  A    between atoms: _392  and  _395
REMARK  165  A    between atoms: _395  and  _396
REMARK  166  A    between atoms: _396  and  _397
REMARK  167  A    between atoms: _400  and  _402
REMARK  168  A    between atoms: _402  and  _403
REMARK  169  A    between atoms: _405  and  _407
REMARK  170  A    between atoms: _407  and  _408
REMARK  171  A    between atoms: _407  and  _410
REMARK  172  A    between atoms: _410  and  _411
REMARK  173  A    between atoms: _417  and  _419
REMARK  174  A    between atoms: _419  and  _420
REMARK  175  A    between atoms: _419  and  _422
REMARK  176  A    between atoms: _422  and  _423
REMARK  177  A    between atoms: _423  and  _424
REMARK  178  A    between atoms: _426  and  _428
REMARK  179  A    between atoms: _428  and  _429
REMARK  180  A    between atoms: _428  and  _431
REMARK  181  A    between atoms: _431  and  _432
REMARK  182  A    between atoms: _435  and  _437
REMARK  183  A    between atoms: _437  and  _438
REMARK  184  A    between atoms: _437  and  _440
REMARK  185  A    between atoms: _440  and  _441
REMARK  186  A    between atoms: _447  and  _449
REMARK  187  A    between atoms: _449  and  _450
REMARK  188  A    between atoms: _449  and  _452
REMARK  189  A    between atoms: _452  and  _453
REMARK  190  A    between atoms: _456  and  _458
REMARK  191  A    between atoms: _458  and  _459
REMARK  192  A    between atoms: _458  and  _461
REMARK  193  A    between atoms: _461  and  _462
REMARK  194  A    between atoms: _465  and  _467
REMARK  195  A    between atoms: _467  and  _468
REMARK  196  A    between atoms: _467  and  _470
REMARK  197  A    between atoms: _470  and  _471
REMARK  198  A    between atoms: _477  and  _479
REMARK  199  A    between atoms: _479  and  _480
REMARK  200  A    between atoms: _479  and  _482
REMARK  201  A    between atoms: _482  and  _483
REMARK  202  A    between atoms: _483  and  _484
REMARK  203  A    between atoms: _486  and  _488
REMARK  204  A    between atoms: _488  and  _489
REMARK  205  A    between atoms: _488  and  _491
REMARK  206  A    between atoms: _491  and  _492
REMARK  207  A    between atoms: _492  and  _493
REMARK  208  A    between atoms: _493  and  _494
REMARK  209  A    between atoms: _494  and  _495
REMARK  210  A    between atoms: _499  and  _501
REMARK  211  A    between atoms: _501  and  _502
REMARK  212  A    between atoms: _501  and  _504
REMARK  213  A    between atoms: _504  and  _505
REMARK  214  A    between atoms: _511  and  _513
REMARK  215  A    between atoms: _513  and  _514
REMARK  216  A    between atoms: _513  and  _516
REMARK  217  A    between atoms: _516  and  _517
REMARK  218  A    between atoms: _520  and  _522
REMARK  219  A    between atoms: _522  and  _523
REMARK  220  A    between atoms: _522  and  _525
REMARK  221  A    between atoms: _528  and  _530
REMARK  222  A    between atoms: _530  and  _531
REMARK  223  A    between atoms: _530  and  _533
REMARK  224  A    between atoms: _533  and  _534
REMARK  225  A    between atoms: _539  and  _541
REMARK  226  A    between atoms: _541  and  _542
REMARK  227  A    between atoms: _541  and  _544
REMARK  228  A    between atoms: _547  and  _549
REMARK  229  A    between atoms: _549  and  _550
REMARK  230  A    between atoms: _549  and  _552
REMARK  231  A    between atoms: _552  and  _553
REMARK  232  A    between atoms: _556  and  _558
REMARK  233  A    between atoms: _558  and  _559
REMARK  234  A    between atoms: _558  and  _561
REMARK  235  A    between atoms: _561  and  _562
REMARK  236  A    between atoms: _565  and  _567
REMARK  237  A    between atoms: _567  and  _568
REMARK  238  A    between atoms: _567  and  _570
REMARK  239  A    between atoms: _570  and  _571
REMARK  240  A    between atoms: _571  and  _572
REMARK  241  A    between atoms: _574  and  _576
REMARK  242  A    between atoms: _576  and  _577
REMARK  243  A    between atoms: _576  and  _579
REMARK  244  A    between atoms: _579  and  _580
REMARK  245  A    between atoms: _582  and  _584
REMARK  246  A    between atoms: _584  and  _585
REMARK  247  A    between atoms: _584  and  _587
REMARK  248  A    between atoms: _587  and  _588
REMARK  249  A    between atoms: _591  and  _593
REMARK  250  A    between atoms: _593  and  _594
REMARK  251  A    between atoms: _593  and  _596
REMARK  252  A    between atoms: _596  and  _597
REMARK  253  A    between atoms: _602  and  _604
REMARK  254  A    between atoms: _604  and  _605
REMARK  255  A    between atoms: _604  and  _607
REMARK  256  A    between atoms: _607  and  _608
REMARK  257  A    between atoms: _611  and  _613
REMARK  258  A    between atoms: _613  and  _614
REMARK  259  A    between atoms: _613  and  _616
REMARK  260  A    between atoms: _616  and  _617
REMARK  261  A    between atoms: _620  and  _622
REMARK  262  A    between atoms: _622  and  _623
REMARK  263  A    between atoms: _622  and  _625
REMARK  264  A    between atoms: _625  and  _626
REMARK  265  A    between atoms: _626  and  _627
REMARK  266  A    between atoms: _632  and  _634
REMARK  267  A    between atoms: _634  and  _635
REMARK  268  A    between atoms: _634  and  _637
REMARK  269  A    between atoms: _637  and  _638
REMARK  270  A    between atoms: _641  and  _643
REMARK  271  A    between atoms: _643  and  _644
REMARK  272  A    between atoms: _643  and  _646
REMARK  273  A    between atoms: _646  and  _647
REMARK  274  A    between atoms: _652  and  _653
REMARK                            x       y       z     vdW  Elec       q    Type
REMARK                         _______ _______ _______ _____ _____    ______ ____
ROOT
ATOM      1  CA  PHE A   2       2.808  13.412  14.609  0.00  0.00    +0.153 C 
ENDROOT
BRANCH   1   2
ATOM      2  C   PHE A   2       2.365  13.718  13.175  0.00  0.00    +0.244 C 
ATOM      3  N   PRO A   3       2.545  14.979  12.733  0.00  0.00    -0.272 N 
ATOM      4  CD  PRO A   3       3.140  16.042  13.562  0.00  0.00    +0.094 C 
ATOM      5  CG  PRO A   3       2.578  17.286  12.925  0.00  0.00    +0.024 C 
ATOM      6  CB  PRO A   3       2.680  16.957  11.464  0.00  0.00    +0.031 C 
ATOM      7  CA  PRO A   3       2.195  15.510  11.403  0.00  0.00    +0.152 C 
ATOM      8  O   PHE A   2       1.870  12.844  12.470  0.00  0.00    -0.273 OA
BRANCH   7   9
ATOM      9  C   PRO A   3       2.804  14.775  10.211  0.00  0.00    +0.241 C 
ATOM     10  N   LEU A   4       4.032  14.285  10.355  0.00  0.00    -0.298 N 
ATOM     11  H   LEU A   4       4.537  14.415  11.255  0.00  0.00    +0.150 HD
ATOM     12  O   PRO A   3       2.170  14.678   9.161  0.00  0.00    -0.273 OA
BRANCH  10  13
ATOM     13  CA  LEU A   4       4.678  13.566   9.260  0.00  0.00    +0.137 C 
BRANCH  13  14
ATOM     14  C   LEU A   4       4.943  12.126   9.690  0.00  0.00    +0.227 C 
ATOM     15  O   LEU A   4       5.903  11.852  10.416  0.00  0.00    -0.286 OA
ENDBRANCH  13  14
BRANCH  13  16
ATOM     16  CB  LEU A   4       5.990  14.255   8.863  0.00  0.00    +0.028 C 
BRANCH  16  17
ATOM     17  CG  LEU A   4       6.774  13.652   7.685  0.00  0.00    +0.002 C 
ATOM     18  CD2 LEU A   4       8.132  14.330   7.590  0.00  0.00    +0.000 C 
ATOM     19  CD1 LEU A   4       6.032  13.836   6.370  0.00  0.00    +0.000 C 
ENDBRANCH  16  17
ENDBRANCH  13  16
ENDBRANCH  10  13
ENDBRANCH   7   9
ENDBRANCH   1   2
BRANCH   1  22
ATOM     20  C   SER A   1       1.442  14.140  16.464  0.00  0.00    +0.241 C 
ATOM     21  O   SER A   1       2.150  15.124  16.620  0.00  0.00    -0.274 OA
ATOM     22  N   PHE A   2       1.674  13.245  15.513  0.00  0.00    -0.297 N 
ATOM     23  H   PHE A   2       1.046  12.422  15.411  0.00  0.00    +0.150 HD
BRANCH  20  24
ATOM     24  CA  SER A   1       0.261  13.893  17.384  0.00  0.00    +0.174 C 
BRANCH  24  25
ATOM     25  N   SER A   1      -0.826  13.103  16.810  0.00  0.00    -0.236 NA
ATOM     26  H   SER A   1      -0.756  12.065  16.795  0.00  0.00    +0.142 HD
ENDBRANCH  24  25
BRANCH  24  27
ATOM     27  CB  SER A   1       0.771  13.231  18.670  0.00  0.00    +0.163 C 
BRANCH  27  28
ATOM     28  OG  SER A   1      -0.216  13.262  19.678  0.00  0.00    -0.380 OA
ATOM     29  H   SER A   1      -0.454  14.202  19.876  0.00  0.00    +0.211 HD
ENDBRANCH  27  28
ENDBRANCH  24  27
ENDBRANCH  20  24
ENDBRANCH   1  22
BRANCH   1  30
ATOM     30  CB  PHE A   2       3.685  12.158  14.663  0.00  0.00    +0.055 C 
BRANCH  30  31
ATOM     31  CG  PHE A   2       4.149  11.802  16.061  0.00  0.00    -0.020 A 
ATOM     32  CD2 PHE A   2       5.001  12.654  16.765  0.00  0.00    -0.004 A 
ATOM     33  CE2 PHE A   2       5.411  12.350  18.072  0.00  0.00    -0.000 A 
ATOM     34  CZ  PHE A   2       4.962  11.175  18.688  0.00  0.00    -0.000 A 
ATOM     35  CE1 PHE A   2       4.110  10.317  17.994  0.00  0.00    -0.000 A 
ATOM     36  CD1 PHE A   2       3.709  10.636  16.682  0.00  0.00    -0.004 A 
ENDBRANCH  30  31
ENDBRANCH   1  30
TORSDOF 13
REMARK  Name = ../refined-set-2016/2i4j/2i4j_pocket.pdb
REMARK  274 active torsions:
REMARK  status: ('A' for Active; 'I' for Inactive)
REMARK    1  A    between atoms: _1  and  _3
REMARK    2  A    between atoms: _3  and  _4
REMARK    3  A    between atoms: _3  and  _6
REMARK    4  A    between atoms: _6  and  _7
REMARK    5  A    between atoms: _12  and  _13
REMARK    6  A    between atoms: _15  and  _17
REMARK    7  A    between atoms: _17  and  _18
REMARK    8  A    between atoms: _17  and  _20
REMARK    9  A    between atoms: _20  and  _21
REMARK   10  A    between atoms: _23  and  _25
REMARK   11  A    between atoms: _25  and  _26
REMARK   12  A    between atoms: _25  and  _28
REMARK   13  A    between atoms: _28  and  _29
REMARK   14  A    between atoms: _36  and  _37
REMARK   15  A    between atoms: _42  and  _44
REMARK   16  A    between atoms: _44  and  _45
REMARK   17  A    between atoms: _44  and  _47
REMARK   18  A    between atoms: _47  and  _48
REMARK   19  A    between atoms: _51  and  _53
REMARK   20  A    between atoms: _53  and  _54
REMARK   21  A    between atoms: _53  and  _56
REMARK   22  A    between atoms: _56  and  _57
REMARK   23  A    between atoms: _60  and  _62
REMARK   24  A    between atoms: _62  and  _63
REMARK   25  A    between atoms: _62  and  _65
REMARK   26  A    between atoms: _65  and  _66
REMARK   27  A    between atoms: _72  and  _74
REMARK   28  A    between atoms: _74  and  _75
REMARK   29  A    between atoms: _74  and  _77
REMARK   30  A    between atoms: _77  and  _78
REMARK   31  A    between atoms: _78  and  _79
REMARK   32  A    between atoms: _84  and  _86
REMARK   33  A    between atoms: _86  and  _87
REMARK   34  A    between atoms: _89  and  _91
REMARK   35  A    between atoms: _91  and  _92
REMARK   36  A    between atoms: _91  and  _94
REMARK   37  A    between atoms: _96  and  _98
REMARK   38  A    between atoms: _98  and  _99
REMARK   39  A    between atoms: _98  and  _101
REMARK   40  A    between atoms: _101  and  _102
REMARK   41  A    between atoms: _102  and  _103
REMARK   42  A    between atoms: _108  and  _110
REMARK   43  A    between atoms: _110  and  _111
REMARK   44  A    between atoms: _110  and  _113
REMARK   45  A    between atoms: _113  and  _114
REMARK   46  A    between atoms: _120  and  _122
REMARK   47  A    between atoms: _122  and  _123
REMARK   48  A    between atoms: _122  and  _125
REMARK   49  A    between atoms: _125  and  _126
REMARK   50  A    between atoms: _126  and  _127
REMARK   51  A    between atoms: _127  and  _128
REMARK   52  A    between atoms: _137  and  _139
REMARK   53  A    between atoms: _139  and  _140
REMARK   54  A    between atoms: _139  and  _142
REMARK   55  A    between atoms: _142  and  _143
REMARK   56  A    between atoms: _145  and  _147
REMARK   57  A    between atoms: _147  and  _148
REMARK   58  A    between atoms: _147  and  _150
REMARK   59  A    between atoms: _153  and  _155
REMARK   60  A    between atoms: _155  and  _156
REMARK   61  A    between atoms: _155  and  _158
REMARK   62  A    between atoms: _158  and  _159
REMARK   63  A    between atoms: _159  and  _160
REMARK   64  A    between atoms: _163  and  _165
REMARK   65  A    between atoms: _165  and  _166
REMARK   66  A    between atoms: _169  and  _171
REMARK   67  A    between atoms: _171  and  _172
REMARK   68  A    between atoms: _171  and  _174
REMARK   69  A    between atoms: _177  and  _179
REMARK   70  A    between atoms: _179  and  _180
REMARK   71  A    between atoms: _179  and  _182
REMARK   72  A    between atoms: _182  and  _183
REMARK   73  A    between atoms: _183  and  _184
REMARK   74  A    between atoms: _189  and  _191
REMARK   75  A    between atoms: _191  and  _192
REMARK   76  A    between atoms: _191  and  _194
REMARK   77  A    between atoms: _194  and  _195
REMARK   78  A    between atoms: _195  and  _196
REMARK   79  A    between atoms: _199  and  _201
REMARK   80  A    between atoms: _201  and  _202
REMARK   81  A    between atoms: _201  and  _204
REMARK   82  A    between atoms: _204  and  _205
REMARK   83  A    between atoms: _208  and  _210
REMARK   84  A    between atoms: _210  and  _211
REMARK   85  A    between atoms: _210  and  _213
REMARK   86  A    between atoms: _213  and  _214
REMARK   87  A    between atoms: _217  and  _219
REMARK   88  A    between atoms: _219  and  _220
REMARK   89  A    between atoms: _219  and  _222
REMARK   90  A    between atoms: _222  and  _223
REMARK   91  A    between atoms: _228  and  _229
REMARK   92  A    between atoms: _231  and  _233
REMARK   93  A    between atoms: _233  and  _234
REMARK   94  A    between atoms: _233  and  _236
REMARK   95  A    between atoms: _239  and  _241
REMARK   96  A    between atoms: _241  and  _242
REMARK   97  A    between atoms: _241  and  _244
REMARK   98  A    between atoms: _244  and  _245
REMARK   99  A    between atoms: _250  and  _252
REMARK  100  A    between atoms: _252  and  _253
REMARK  101  A    between atoms: _252  and  _255
REMARK  102  A    between atoms: _255  and  _256
REMARK  103  A    between atoms: _256  and  _257
REMARK  104  A    between atoms: _260  and  _262
REMARK  105  A    between atoms: _262  and  _263
REMARK  106  A    between atoms: _262  and  _265
REMARK  107  A    between atoms: _265  and  _266
REMARK  108  A    between atoms: _269  and  _271
REMARK  109  A    between atoms: _271  and  _272
REMARK  110  A    between atoms: _271  and  _274
REMARK  111  A    between atoms: _274  and  _275
REMARK  112  A    between atoms: _278  and  _280
REMARK  113  A    between atoms: _280  and  _281
REMARK  114  A    between atoms: _280  and  _283
REMARK  115  A    between atoms: _283  and  _284
REMARK  116  A    between atoms: _289  and  _290
REMARK  117  A    between atoms: _292  and  _294
REMARK  118  A    between atoms: _294  and  _295
REMARK  119  A    between atoms: _294  and  _297
REMARK  120  A    between atoms: _297  and  _298
REMARK  121  A    between atoms: _301  and  _303
REMARK  122  A    between atoms: _303  and  _304
REMARK  123  A    between atoms: _303  and  _306
REMARK  124  A    between atoms: _306  and  _307
REMARK  125  A    between atoms: _307  and  _308
REMARK  126  A    between atoms: _310  and  _312
REMARK  127  A    between atoms: _312  and  _313
REMARK  128  A    between atoms: _312  and  _315
REMARK  129  A    between atoms: _315  and  _316
REMARK  130  A    between atoms: _319  and  _321
REMARK  131  A    between atoms: _321  and  _322
REMARK  132  A    between atoms: _325  and  _327
REMARK  133  A    between atoms: _327  and  _328
REMARK  134  A    between atoms: _327  and  _330
REMARK  135  A    between atoms: _330  and  _331
REMARK  136  A    between atoms: _333  and  _335
REMARK  137  A    between atoms: _335  and  _336
REMARK  138  A    between atoms: _335  and  _338
REMARK  139  A    between atoms: _338  and  _339
REMARK  140  A    between atoms: _342  and  _344
REMARK  141  A    between atoms: _344  and  _345
REMARK  142  A    between atoms: _344  and  _347
REMARK  143  A    between atoms: _347  and  _348
REMARK  144  A    between atoms: _348  and  _349
REMARK  145  A    between atoms: _351  and  _353
REMARK  146  A    between atoms: _353  and  _354
REMARK  147  A    between atoms: _356  and  _358
REMARK  148  A    between atoms: _358  and  _359
REMARK  149  A    between atoms: _358  and  _361
REMARK  150  A    between atoms: _364  and  _366
REMARK  151  A    between atoms: _366  and  _367
REMARK  152  A    between atoms: _366  and  _369
REMARK  153  A    between atoms: _369  and  _370
REMARK  154  A    between atoms: _373  and  _375
REMARK  155  A    between atoms: _375  and  _376
REMARK  156  A    between atoms: _375  and  _378
REMARK  157  A    between atoms: _378  and  _379
REMARK  158  A    between atoms: _382  and  _384
REMARK  159  A    between atoms: _384  and  _385
REMARK  160  A    between atoms: _384  and  _387
REMARK  161  A    between atoms: _387  and  _388
REMARK  162  A    between atoms: _390  and  _392
REMARK  163  A    between atoms: _392  and  _393
REMARK  164  A    between atoms: _392  and  _395
REMARK  165  A    between atoms: _395  and  _396
REMARK  166  A    between atoms: _396  and  _397
REMARK  167  A    between atoms: _400  and  _402
REMARK  168  A    between atoms: _402  and  _403
REMARK  169  A    between atoms: _405  and  _407
REMARK  170  A    between atoms: _407  and  _408
REMARK  171  A    between atoms: _407  and  _410
REMARK  172  A    between atoms: _410  and  _411
REMARK  173  A    between atoms: _417  and  _419
REMARK  174  A    between atoms: _419  and  _420
REMARK  175  A    between atoms: _419  and  _422
REMARK  176  A    between atoms: _422  and  _423
REMARK  177  A    between atoms: _423  and  _424
REMARK  178  A    between atoms: _426  and  _428
REMARK  179  A    between atoms: _428  and  _429
REMARK  180  A    between atoms: _428  and  _431
REMARK  181  A    between atoms: _431  and  _432
REMARK  182  A    between atoms: _435  and  _437
REMARK  183  A    between atoms: _437  and  _438
REMARK  184  A    between atoms: _437  and  _440
REMARK  185  A    between atoms: _440  and  _441
REMARK  186  A    between atoms: _447  and  _449
REMARK  187  A    between atoms: _449  and  _450
REMARK  188  A    between atoms: _449  and  _452
REMARK  189  A    between atoms: _452  and  _453
REMARK  190  A    between atoms: _456  and  _458
REMARK  191  A    between atoms: _458  and  _459
REMARK  192  A    between atoms: _458  and  _461
REMARK  193  A    between atoms: _461  and  _462
REMARK  194  A    between atoms: _465  and  _467
REMARK  195  A    between atoms: _467  and  _468
REMARK  196  A    between atoms: _467  and  _470
REMARK  197  A    between atoms: _470  and  _471
REMARK  198  A    between atoms: _477  and  _479
REMARK  199  A    between atoms: _479  and  _480
REMARK  200  A    between atoms: _479  and  _482
REMARK  201  A    between atoms: _482  and  _483
REMARK  202  A    between atoms: _483  and  _484
REMARK  203  A    between atoms: _486  and  _488
REMARK  204  A    between atoms: _488  and  _489
REMARK  205  A    between atoms: _488  and  _491
REMARK  206  A    between atoms: _491  and  _492
REMARK  207  A    between atoms: _492  and  _493
REMARK  208  A    between atoms: _493  and  _494
REMARK  209  A    between atoms: _494  and  _495
REMARK  210  A    between atoms: _499  and  _501
REMARK  211  A    between atoms: _501  and  _502
REMARK  212  A    between atoms: _501  and  _504
REMARK  213  A    between atoms: _504  and  _505
REMARK  214  A    between atoms: _511  and  _513
REMARK  215  A    between atoms: _513  and  _514
REMARK  216  A    between atoms: _513  and  _516
REMARK  217  A    between atoms: _516  and  _517
REMARK  218  A    between atoms: _520  and  _522
REMARK  219  A    between atoms: _522  and  _523
REMARK  220  A    between atoms: _522  and  _525
REMARK  221  A    between atoms: _528  and  _530
REMARK  222  A    between atoms: _530  and  _531
REMARK  223  A    between atoms: _530  and  _533
REMARK  224  A    between atoms: _533  and  _534
REMARK  225  A    between atoms: _539  and  _541
REMARK  226  A    between atoms: _541  and  _542
REMARK  227  A    between atoms: _541  and  _544
REMARK  228  A    between atoms: _547  and  _549
REMARK  229  A    between atoms: _549  and  _550
REMARK  230  A    between atoms: _549  and  _552
REMARK  231  A    between atoms: _552  and  _553
REMARK  232  A    between atoms: _556  and  _558
REMARK  233  A    between atoms: _558  and  _559
REMARK  234  A    between atoms: _558  and  _561
REMARK  235  A    between atoms: _561  and  _562
REMARK  236  A    between atoms: _565  and  _567
REMARK  237  A    between atoms: _567  and  _568
REMARK  238  A    between atoms: _567  and  _570
REMARK  239  A    between atoms: _570  and  _571
REMARK  240  A    between atoms: _571  and  _572
REMARK  241  A    between atoms: _574  and  _576
REMARK  242  A    between atoms: _576  and  _577
REMARK  243  A    between atoms: _576  and  _579
REMARK  244  A    between atoms: _579  and  _580
REMARK  245  A    between atoms: _582  and  _584
REMARK  246  A    between atoms: _584  and  _585
REMARK  247  A    between atoms: _584  and  _587
REMARK  248  A    between atoms: _587  and  _588
REMARK  249  A    between atoms: _591  and  _593
REMARK  250  A    between atoms: _593  and  _594
REMARK  251  A    between atoms: _593  and  _596
REMARK  252  A    between atoms: _596  and  _597
REMARK  253  A    between atoms: _602  and  _604
REMARK  254  A    between atoms: _604  and  _605
REMARK  255  A    between atoms: _604  and  _607
REMARK  256  A    between atoms: _607  and  _608
REMARK  257  A    between atoms: _611  and  _613
REMARK  258  A    between atoms: _613  and  _614
REMARK  259  A    between atoms: _613  and  _616
REMARK  260  A    between atoms: _616  and  _617
REMARK  261  A    between atoms: _620  and  _622
REMARK  262  A    between atoms: _622  and  _623
REMARK  263  A    between atoms: _622  and  _625
REMARK  264  A    between atoms: _625  and  _626
REMARK  265  A    between atoms: _626  and  _627
REMARK  266  A    between atoms: _632  and  _634
REMARK  267  A    between atoms: _634  and  _635
REMARK  268  A    between atoms: _634  and  _637
REMARK  269  A    between atoms: _637  and  _638
REMARK  270  A    between atoms: _641  and  _643
REMARK  271  A    between atoms: _643  and  _644
REMARK  272  A    between atoms: _643  and  _646
REMARK  273  A    between atoms: _646  and  _647
REMARK  274  A    between atoms: _652  and  _653
REMARK                            x       y       z     vdW  Elec       q    Type
REMARK                         _______ _______ _______ _____ _____    ______ ____
ROOT
ATOM      1  CA  ARG A   8      12.777  21.068  14.972  0.00  0.00    +0.149 C 
ENDROOT
BRANCH   1   2
ATOM      2  C   ARG A   8      12.705  20.056  16.108  0.00  0.00    +0.241 C 
ATOM      3  N   SER A   9      13.789  19.957  16.871  0.00  0.00    -0.295 N 
ATOM      4  H   SER A   9      14.614  20.553  16.659  0.00  0.00    +0.150 HD
ATOM      5  O   ARG A   8      11.694  19.375  16.284  0.00  0.00    -0.273 OA
BRANCH   3   6
ATOM      6  CA  SER A   9      13.850  19.034  17.997  0.00  0.00    +0.178 C 
BRANCH   6   7
ATOM      7  C   SER A   9      12.886  19.453  19.094  0.00  0.00    +0.243 C 
ATOM      8  O   SER A   9      12.166  18.621  19.645  0.00  0.00    -0.273 OA
ATOM      9  N   VAL A  10      12.878  20.741  19.427  0.00  0.00    -0.297 N 
ATOM     10  H   VAL A  10      13.521  21.405  18.950  0.00  0.00    +0.150 HD
BRANCH   9  11
ATOM     11  CA  VAL A  10      11.969  21.223  20.460  0.00  0.00    +0.149 C 
BRANCH  11  12
ATOM     12  C   VAL A  10      10.557  20.951  19.962  0.00  0.00    +0.241 C 
ATOM     13  O   VAL A  10       9.686  20.515  20.713  0.00  0.00    -0.273 OA
ATOM     14  N   GLU A  11      10.348  21.181  18.673  0.00  0.00    -0.297 N 
ATOM     15  H   GLU A  11      11.128  21.540  18.086  0.00  0.00    +0.150 HD
BRANCH  14  16
ATOM     16  CA  GLU A  11       9.051  20.941  18.066  0.00  0.00    +0.149 C 
BRANCH  16  17
ATOM     17  C   GLU A  11       8.654  19.474  18.297  0.00  0.00    +0.241 C 
ATOM     18  O   GLU A  11       7.507  19.182  18.634  0.00  0.00    -0.273 OA
ATOM     19  N   ALA A  12       9.607  18.559  18.127  0.00  0.00    -0.297 N 
ATOM     20  H   ALA A  12      10.560  18.863  17.844  0.00  0.00    +0.150 HD
BRANCH  19  21
ATOM     21  CA  ALA A  12       9.341  17.137  18.330  0.00  0.00    +0.149 C 
ATOM     22  CB  ALA A  12      10.514  16.300  17.829  0.00  0.00    +0.031 C 
BRANCH  21  23
ATOM     23  C   ALA A  12       9.067  16.837  19.800  0.00  0.00    +0.241 C 
ATOM     24  N   VAL A  13       9.814  17.472  20.701  0.00  0.00    -0.297 N 
ATOM     25  H   VAL A  13      10.558  18.128  20.389  0.00  0.00    +0.150 HD
ATOM     26  O   ALA A  12       8.193  16.039  20.121  0.00  0.00    -0.273 OA
BRANCH  24  27
ATOM     27  CA  VAL A  13       9.590  17.249  22.130  0.00  0.00    +0.149 C 
BRANCH  27  28
ATOM     28  C   VAL A  13       8.133  17.565  22.456  0.00  0.00    +0.241 C 
ATOM     29  O   VAL A  13       7.496  16.856  23.237  0.00  0.00    -0.273 OA
ATOM     30  N   GLN A  14       7.599  18.628  21.857  0.00  0.00    -0.297 N 
ATOM     31  H   GLN A  14       8.171  19.200  21.204  0.00  0.00    +0.150 HD
BRANCH  30  32
ATOM     32  CA  GLN A  14       6.210  18.989  22.119  0.00  0.00    +0.149 C 
BRANCH  32  33
ATOM     33  C   GLN A  14       5.223  17.975  21.536  0.00  0.00    +0.241 C 
ATOM     34  O   GLN A  14       4.179  17.707  22.126  0.00  0.00    -0.273 OA
ATOM     35  N   GLU A  15       5.544  17.414  20.373  0.00  0.00    -0.297 N 
ATOM     36  H   GLU A  15       6.428  17.684  19.896  0.00  0.00    +0.150 HD
BRANCH  35  37
ATOM     37  CA  GLU A  15       4.668  16.427  19.764  0.00  0.00    +0.149 C 
BRANCH  37  38
ATOM     38  C   GLU A  15       4.734  15.157  20.605  0.00  0.00    +0.241 C 
ATOM     39  N   ILE A  16       5.943  14.743  20.977  0.00  0.00    -0.297 N 
ATOM     40  H   ILE A  16       6.780  15.279  20.670  0.00  0.00    +0.150 HD
ATOM     41  O   GLU A  15       3.708  14.575  20.928  0.00  0.00    -0.273 OA
BRANCH  39  42
ATOM     42  CA  ILE A  16       6.123  13.551  21.809  0.00  0.00    +0.149 C 
BRANCH  42  43
ATOM     43  C   ILE A  16       5.431  13.747  23.160  0.00  0.00    +0.241 C 
ATOM     44  O   ILE A  16       4.846  12.811  23.713  0.00  0.00    -0.273 OA
ATOM     45  N   THR A  17       5.499  14.953  23.712  0.00  0.00    -0.296 N 
ATOM     46  H   THR A  17       6.011  15.720  23.232  0.00  0.00    +0.150 HD
BRANCH  45  47
ATOM     47  CA  THR A  17       4.849  15.195  24.999  0.00  0.00    +0.164 C 
BRANCH  47  48
ATOM     48  CB  THR A  17       5.145  16.604  25.522  0.00  0.00    +0.136 C 
ATOM     49  CG2 THR A  17       4.330  16.882  26.778  0.00  0.00    +0.034 C 
BRANCH  48  50
ATOM     50  OG1 THR A  17       6.544  16.721  25.813  0.00  0.00    -0.382 OA
ATOM     51  HG1 THR A  17       7.066  16.558  24.988  0.00  0.00    +0.210 HD
ENDBRANCH  48  50
ENDBRANCH  47  48
BRANCH  47  52
ATOM     52  C   THR A  17       3.336  15.035  24.855  0.00  0.00    +0.229 C 
ATOM     53  O   THR A  17       2.663  14.459  25.718  0.00  0.00    -0.286 OA
ENDBRANCH  47  52
ENDBRANCH  45  47
ENDBRANCH  42  43
BRANCH  42  54
ATOM     54  CB  ILE A  16       7.638  13.251  22.054  0.00  0.00    +0.027 C 
ATOM     55  CG2 ILE A  16       7.799  12.123  23.085  0.00  0.00    +0.002 C 
BRANCH  54  56
ATOM     56  CG1 ILE A  16       8.308  12.853  20.738  0.00  0.00    +0.002 C 
ATOM     57  CD1 ILE A  16       9.836  12.997  20.742  0.00  0.00    +0.000 C 
ENDBRANCH  54  56
ENDBRANCH  42  54
ENDBRANCH  39  42
ENDBRANCH  37  38
BRANCH  37  58
ATOM     58  CB  GLU A  15       5.103  16.169  18.320  0.00  0.00    +0.041 C 
BRANCH  58  59
ATOM     59  CG  GLU A  15       5.391  17.477  17.597  0.00  0.00    +0.116 C 
BRANCH  59  60
ATOM     60  CD  GLU A  15       5.800  17.306  16.156  0.00  0.00    +0.365 C 
ATOM     61  OE2 GLU A  15       6.614  16.407  15.855  0.00  0.00    -0.246 OA
ATOM     62  OE1 GLU A  15       5.315  18.095  15.319  0.00  0.00    -0.246 OA
ENDBRANCH  59  60
ENDBRANCH  58  59
ENDBRANCH  37  58
ENDBRANCH  35  37
ENDBRANCH  32  33
BRANCH  32  63
ATOM     63  CB  GLN A  14       5.901  20.388  21.581  0.00  0.00    +0.039 C 
BRANCH  63  64
ATOM     64  CG  GLN A  14       4.447  20.821  21.829  0.00  0.00    +0.087 C 
BRANCH  64  65
ATOM     65  CD  GLN A  14       3.990  20.589  23.270  0.00  0.00    +0.219 C 
ATOM     66  OE1 GLN A  14       4.562  21.139  24.213  0.00  0.00    -0.275 OA
ATOM     67  NE2 GLN A  14       2.951  19.772  23.442  0.00  0.00    -0.329 N 
ATOM     68 HE21 GLN A  14       2.595  19.579  24.400  0.00  0.00    +0.145 HD
ATOM     69 HE22 GLN A  14       2.497  19.328  22.619  0.00  0.00    +0.145 HD
ENDBRANCH  64  65
ENDBRANCH  63  64
ENDBRANCH  32  63
ENDBRANCH  30  32
ENDBRANCH  27  28
BRANCH  27  70
ATOM     70  CB  VAL A  13      10.487  18.147  23.023  0.00  0.00    +0.027 C 
ATOM     71  CG2 VAL A  13      10.182  17.880  24.485  0.00  0.00    +0.002 C 
ATOM     72  CG1 VAL A  13      11.947  17.865  22.758  0.00  0.00    +0.002 C 
ENDBRANCH  27  70
ENDBRANCH  24  27
ENDBRANCH  21  23
ENDBRANCH  19  21
ENDBRANCH  16  17
BRANCH  16  73
ATOM     73  CB  GLU A  11       9.133  21.257  16.570  0.00  0.00    +0.041 C 
BRANCH  73  74
ATOM     74  CG  GLU A  11       7.809  21.285  15.836  0.00  0.00    +0.116 C 
BRANCH  74  75
ATOM     75  CD  GLU A  11       7.965  21.802  14.414  0.00  0.00    +0.365 C 
ATOM     76  OE2 GLU A  11       8.251  23.009  14.243  0.00  0.00    -0.246 OA
ATOM     77  OE1 GLU A  11       7.815  20.999  13.468  0.00  0.00    -0.246 OA
ENDBRANCH  74  75
ENDBRANCH  73  74
ENDBRANCH  16  73
ENDBRANCH  14  16
ENDBRANCH  11  12
BRANCH  11  78
ATOM     78  CB  VAL A  10      12.177  22.751  20.757  0.00  0.00    +0.027 C 
ATOM     79  CG2 VAL A  10      10.858  23.507  20.684  0.00  0.00    +0.002 C 
ATOM     80  CG1 VAL A  10      13.164  23.334  19.795  0.00  0.00    +0.002 C 
ENDBRANCH  11  78
ENDBRANCH   9  11
ENDBRANCH   6   7
BRANCH   6  81
ATOM     81  CB  SER A   9      15.268  18.978  18.559  0.00  0.00    +0.166 C 
BRANCH  81  82
ATOM     82  OG  SER A   9      16.186  18.671  17.532  0.00  0.00    -0.380 OA
ATOM     83  H   SER A   9      16.141  19.369  16.831  0.00  0.00    +0.211 HD
ENDBRANCH  81  82
ENDBRANCH   6  81
ENDBRANCH   3   6
ENDBRANCH   1   2
BRANCH   1  86
ATOM     84  C   PHE A   7      13.166  23.072  16.284  0.00  0.00    +0.241 C 
ATOM     85  O   PHE A   7      12.093  22.940  16.879  0.00  0.00    -0.273 OA
ATOM     86  N   ARG A   8      13.579  22.226  15.346  0.00  0.00    -0.297 N 
ATOM     87  H   ARG A   8      14.489  22.393  14.871  0.00  0.00    +0.150 HD
BRANCH  84  88
ATOM     88  CA  PHE A   7      14.084  24.250  16.596  0.00  0.00    +0.153 C 
BRANCH  88  91
ATOM     89  C   GLN A   6      15.954  22.906  17.392  0.00  0.00    +0.241 C 
ATOM     90  O   GLN A   6      15.231  22.244  18.142  0.00  0.00    -0.273 OA
ATOM     91  N   PHE A   7      15.495  23.879  16.610  0.00  0.00    -0.297 N 
ATOM     92  H   PHE A   7      16.159  24.389  15.993  0.00  0.00    +0.150 HD
BRANCH  89  93
ATOM     93  CA  GLN A   6      17.445  22.623  17.305  0.00  0.00    +0.149 C 
BRANCH  93  95
ATOM     94  C   CYS A   5      17.121  21.295  15.297  0.00  0.00    +0.242 C 
ATOM     95  N   GLN A   6      17.776  22.254  15.940  0.00  0.00    -0.297 N 
ATOM     96  H   GLN A   6      18.547  22.754  15.453  0.00  0.00    +0.150 HD
ATOM     97  O   CYS A   5      16.192  20.662  15.793  0.00  0.00    -0.273 OA
BRANCH  94  98
ATOM     98  CA  CYS A   5      17.582  21.024  13.880  0.00  0.00    +0.160 C 
BRANCH  98 101
ATOM     99  C   GLY A   4      16.833  23.176  13.033  0.00  0.00    +0.243 C 
ATOM    100  O   GLY A   4      15.674  22.962  13.374  0.00  0.00    -0.273 OA
ATOM    101  N   CYS A   5      17.816  22.303  13.226  0.00  0.00    -0.296 N 
ATOM    102  H   CYS A   5      18.776  22.539  12.902  0.00  0.00    +0.150 HD
BRANCH  99 103
ATOM    103  CA  GLY A   4      17.212  24.479  12.359  0.00  0.00    +0.176 C 
BRANCH 103 106
ATOM    104  C   GLN A   3      18.367  25.441  14.240  0.00  0.00    +0.241 C 
ATOM    105  O   GLN A   3      17.343  25.450  14.922  0.00  0.00    -0.273 OA
ATOM    106  N   GLY A   4      18.406  24.997  12.989  0.00  0.00    -0.295 N 
ATOM    107  H   GLY A   4      19.301  25.022  12.459  0.00  0.00    +0.150 HD
BRANCH 104 108
ATOM    108  CA  GLN A   3      19.690  25.931  14.809  0.00  0.00    +0.149 C 
BRANCH 108 111
ATOM    109  C   PHE A   2      20.994  24.003  14.222  0.00  0.00    +0.241 C 
ATOM    110  O   PHE A   2      20.313  23.312  14.976  0.00  0.00    -0.273 OA
ATOM    111  N   GLN A   3      20.781  25.305  14.079  0.00  0.00    -0.297 N 
ATOM    112  H   GLN A   3      21.387  25.871  13.452  0.00  0.00    +0.150 HD
BRANCH 109 113
ATOM    113  CA  PHE A   2      22.142  23.381  13.421  0.00  0.00    +0.153 C 
BRANCH 113 115
ATOM    114  C   ILE A   1      21.233  23.513  11.160  0.00  0.00    +0.238 C 
ATOM    115  N   PHE A   2      22.182  23.844  12.033  0.00  0.00    -0.297 N 
ATOM    116  H   PHE A   2      22.971  24.446  11.721  0.00  0.00    +0.150 HD
ATOM    117  O   ILE A   1      20.255  22.826  11.458  0.00  0.00    -0.274 OA
BRANCH 114 118
ATOM    118  CA  ILE A   1      21.399  24.050   9.746  0.00  0.00    +0.145 C 
BRANCH 118 119
ATOM    119  N   ILE A   1      22.000  25.373   9.774  0.00  0.00    -0.238 NA
ATOM    120  H   ILE A   1      22.938  25.514   9.347  0.00  0.00    +0.142 HD
ENDBRANCH 118 119
BRANCH 118 121
ATOM    121  CB  ILE A   1      22.266  23.079   8.925  0.00  0.00    +0.025 C 
ATOM    122  CG2 ILE A   1      21.790  21.651   9.125  0.00  0.00    +0.002 C 
BRANCH 121 123
ATOM    123  CG1 ILE A   1      22.225  23.484   7.452  0.00  0.00    +0.002 C 
ATOM    124  CD1 ILE A   1      23.223  22.752   6.585  0.00  0.00    +0.000 C 
ENDBRANCH 121 123
ENDBRANCH 118 121
ENDBRANCH 114 118
ENDBRANCH 113 115
BRANCH 113 125
ATOM    125  CB  PHE A   2      23.473  23.675  14.120  0.00  0.00    +0.055 C 
BRANCH 125 126
ATOM    126  CG  PHE A   2      23.621  22.993  15.455  0.00  0.00    -0.020 A 
ATOM    127  CD2 PHE A   2      23.409  23.695  16.640  0.00  0.00    -0.004 A 
ATOM    128  CE2 PHE A   2      23.524  23.058  17.878  0.00  0.00    -0.000 A 
ATOM    129  CZ  PHE A   2      23.858  21.705  17.939  0.00  0.00    -0.000 A 
ATOM    130  CE1 PHE A   2      24.074  20.996  16.763  0.00  0.00    -0.000 A 
ATOM    131  CD1 PHE A   2      23.954  21.642  15.528  0.00  0.00    -0.004 A 
ENDBRANCH 125 126
ENDBRANCH 113 125
ENDBRANCH 109 113
ENDBRANCH 108 111
BRANCH 108 132
ATOM    132  CB  GLN A   3      19.796  27.457  14.735  0.00  0.00    +0.039 C 
BRANCH 132 133
ATOM    133  CG  GLN A   3      20.605  28.036  15.888  0.00  0.00    +0.087 C 
BRANCH 133 134
ATOM    134  CD  GLN A   3      21.459  29.215  15.479  0.00  0.00    +0.219 C 
ATOM    135  OE1 GLN A   3      22.205  29.770  16.291  0.00  0.00    -0.275 OA
ATOM    136  NE2 GLN A   3      21.360  29.602  14.217  0.00  0.00    -0.329 N 
ATOM    137 HE21 GLN A   3      21.925  30.405  13.873  0.00  0.00    +0.145 HD
ATOM    138 HE22 GLN A   3      20.717  29.103  13.569  0.00  0.00    +0.145 HD
ENDBRANCH 133 134
ENDBRANCH 132 133
ENDBRANCH 108 132
ENDBRANCH 104 108
ENDBRANCH 103 106
ENDBRANCH  99 103
ENDBRANCH  98 101
BRANCH  98 139
ATOM    139  CB  CYS A   5      18.867  20.198  13.915  0.00  0.00    +0.098 C 
ATOM    140  SG  CYS A   5      19.582  19.932  12.286  0.00  0.00    -0.080 S 
ENDBRANCH  98 139
ENDBRANCH  94  98
ENDBRANCH  93  95
BRANCH  93 141
ATOM    141  CB  GLN A   6      18.250  23.859  17.723  0.00  0.00    +0.039 C 
BRANCH 141 142
ATOM    142  CG  GLN A   6      18.682  23.842  19.178  0.00  0.00    +0.087 C 
BRANCH 142 143
ATOM    143  CD  GLN A   6      19.557  25.024  19.555  0.00  0.00    +0.219 C 
ATOM    144  NE2 GLN A   6      20.812  24.745  19.887  0.00  0.00    -0.329 N 
ATOM    145 HE21 GLN A   6      21.462  25.512  20.152  0.00  0.00    +0.145 HD
ATOM    146 HE22 GLN A   6      21.145  23.760  19.882  0.00  0.00    +0.145 HD
ATOM    147  OE1 GLN A   6      19.110  26.172  19.544  0.00  0.00    -0.275 OA
ENDBRANCH 142 143
ENDBRANCH 141 142
ENDBRANCH  93 141
ENDBRANCH  89  93
ENDBRANCH  88  91
BRANCH  88 148
ATOM    148  CB  PHE A   7      13.830  25.376  15.587  0.00  0.00    +0.055 C 
BRANCH 148 149
ATOM    149  CG  PHE A   7      12.385  25.517  15.197  0.00  0.00    -0.020 A 
ATOM    150  CD2 PHE A   7      11.515  26.291  15.960  0.00  0.00    -0.004 A 
ATOM    151  CE2 PHE A   7      10.155  26.358  15.646  0.00  0.00    -0.000 A 
ATOM    152  CZ  PHE A   7       9.657  25.646  14.560  0.00  0.00    -0.000 A 
ATOM    153  CE1 PHE A   7      10.517  24.873  13.789  0.00  0.00    -0.000 A 
ATOM    154  CD1 PHE A   7      11.873  24.813  14.109  0.00  0.00    -0.004 A 
ENDBRANCH 148 149
ENDBRANCH  88 148
ENDBRANCH  84  88
ENDBRANCH   1  86
BRANCH   1 155
ATOM    155  CB  ARG A   8      13.359  20.388  13.728  0.00  0.00    +0.033 C 
BRANCH 155 156
ATOM    156  CG  ARG A   8      12.619  19.120  13.338  0.00  0.00    +0.045 C 
BRANCH 156 157
ATOM    157  CD  ARG A   8      11.148  19.415  13.081  0.00  0.00    +0.174 C 
BRANCH 157 158
ATOM    158  NE  ARG A   8      10.371  18.212  12.797  0.00  0.00    -0.265 N 
ATOM    159  CZ  ARG A   8       9.451  17.708  13.614  0.00  0.00    +0.342 C 
ATOM    160  NH2 ARG A   8       9.194  18.303  14.775  0.00  0.00    -0.292 N 
ATOM    161 HH21 ARG A   8       8.474  17.908  15.414  0.00  0.00    +0.255 HD
ATOM    162 HH22 ARG A   8       9.713  19.163  15.045  0.00  0.00    +0.255 HD
ATOM    163  NH1 ARG A   8       8.773  16.619  13.271  0.00  0.00    -0.292 N 
ATOM    164 HH11 ARG A   8       8.055  16.230  13.914  0.00  0.00    +0.255 HD
ATOM    165 HH12 ARG A   8       8.960  16.156  12.359  0.00  0.00    +0.255 HD
ATOM    166  HE  ARG A   8      10.548  17.718  11.899  0.00  0.00    +0.259 HD
ENDBRANCH 157 158
ENDBRANCH 156 157
ENDBRANCH 155 156
ENDBRANCH   1 155
TORSDOF 68
REMARK  Name = ../refined-set-2016/2i4j/2i4j_pocket.pdb
REMARK  274 active torsions:
REMARK  status: ('A' for Active; 'I' for Inactive)
REMARK    1  A    between atoms: _1  and  _3
REMARK    2  A    between atoms: _3  and  _4
REMARK    3  A    between atoms: _3  and  _6
REMARK    4  A    between atoms: _6  and  _7
REMARK    5  A    between atoms: _12  and  _13
REMARK    6  A    between atoms: _15  and  _17
REMARK    7  A    between atoms: _17  and  _18
REMARK    8  A    between atoms: _17  and  _20
REMARK    9  A    between atoms: _20  and  _21
REMARK   10  A    between atoms: _23  and  _25
REMARK   11  A    between atoms: _25  and  _26
REMARK   12  A    between atoms: _25  and  _28
REMARK   13  A    between atoms: _28  and  _29
REMARK   14  A    between atoms: _36  and  _37
REMARK   15  A    between atoms: _42  and  _44
REMARK   16  A    between atoms: _44  and  _45
REMARK   17  A    between atoms: _44  and  _47
REMARK   18  A    between atoms: _47  and  _48
REMARK   19  A    between atoms: _51  and  _53
REMARK   20  A    between atoms: _53  and  _54
REMARK   21  A    between atoms: _53  and  _56
REMARK   22  A    between atoms: _56  and  _57
REMARK   23  A    between atoms: _60  and  _62
REMARK   24  A    between atoms: _62  and  _63
REMARK   25  A    between atoms: _62  and  _65
REMARK   26  A    between atoms: _65  and  _66
REMARK   27  A    between atoms: _72  and  _74
REMARK   28  A    between atoms: _74  and  _75
REMARK   29  A    between atoms: _74  and  _77
REMARK   30  A    between atoms: _77  and  _78
REMARK   31  A    between atoms: _78  and  _79
REMARK   32  A    between atoms: _84  and  _86
REMARK   33  A    between atoms: _86  and  _87
REMARK   34  A    between atoms: _89  and  _91
REMARK   35  A    between atoms: _91  and  _92
REMARK   36  A    between atoms: _91  and  _94
REMARK   37  A    between atoms: _96  and  _98
REMARK   38  A    between atoms: _98  and  _99
REMARK   39  A    between atoms: _98  and  _101
REMARK   40  A    between atoms: _101  and  _102
REMARK   41  A    between atoms: _102  and  _103
REMARK   42  A    between atoms: _108  and  _110
REMARK   43  A    between atoms: _110  and  _111
REMARK   44  A    between atoms: _110  and  _113
REMARK   45  A    between atoms: _113  and  _114
REMARK   46  A    between atoms: _120  and  _122
REMARK   47  A    between atoms: _122  and  _123
REMARK   48  A    between atoms: _122  and  _125
REMARK   49  A    between atoms: _125  and  _126
REMARK   50  A    between atoms: _126  and  _127
REMARK   51  A    between atoms: _127  and  _128
REMARK   52  A    between atoms: _137  and  _139
REMARK   53  A    between atoms: _139  and  _140
REMARK   54  A    between atoms: _139  and  _142
REMARK   55  A    between atoms: _142  and  _143
REMARK   56  A    between atoms: _145  and  _147
REMARK   57  A    between atoms: _147  and  _148
REMARK   58  A    between atoms: _147  and  _150
REMARK   59  A    between atoms: _153  and  _155
REMARK   60  A    between atoms: _155  and  _156
REMARK   61  A    between atoms: _155  and  _158
REMARK   62  A    between atoms: _158  and  _159
REMARK   63  A    between atoms: _159  and  _160
REMARK   64  A    between atoms: _163  and  _165
REMARK   65  A    between atoms: _165  and  _166
REMARK   66  A    between atoms: _169  and  _171
REMARK   67  A    between atoms: _171  and  _172
REMARK   68  A    between atoms: _171  and  _174
REMARK   69  A    between atoms: _177  and  _179
REMARK   70  A    between atoms: _179  and  _180
REMARK   71  A    between atoms: _179  and  _182
REMARK   72  A    between atoms: _182  and  _183
REMARK   73  A    between atoms: _183  and  _184
REMARK   74  A    between atoms: _189  and  _191
REMARK   75  A    between atoms: _191  and  _192
REMARK   76  A    between atoms: _191  and  _194
REMARK   77  A    between atoms: _194  and  _195
REMARK   78  A    between atoms: _195  and  _196
REMARK   79  A    between atoms: _199  and  _201
REMARK   80  A    between atoms: _201  and  _202
REMARK   81  A    between atoms: _201  and  _204
REMARK   82  A    between atoms: _204  and  _205
REMARK   83  A    between atoms: _208  and  _210
REMARK   84  A    between atoms: _210  and  _211
REMARK   85  A    between atoms: _210  and  _213
REMARK   86  A    between atoms: _213  and  _214
REMARK   87  A    between atoms: _217  and  _219
REMARK   88  A    between atoms: _219  and  _220
REMARK   89  A    between atoms: _219  and  _222
REMARK   90  A    between atoms: _222  and  _223
REMARK   91  A    between atoms: _228  and  _229
REMARK   92  A    between atoms: _231  and  _233
REMARK   93  A    between atoms: _233  and  _234
REMARK   94  A    between atoms: _233  and  _236
REMARK   95  A    between atoms: _239  and  _241
REMARK   96  A    between atoms: _241  and  _242
REMARK   97  A    between atoms: _241  and  _244
REMARK   98  A    between atoms: _244  and  _245
REMARK   99  A    between atoms: _250  and  _252
REMARK  100  A    between atoms: _252  and  _253
REMARK  101  A    between atoms: _252  and  _255
REMARK  102  A    between atoms: _255  and  _256
REMARK  103  A    between atoms: _256  and  _257
REMARK  104  A    between atoms: _260  and  _262
REMARK  105  A    between atoms: _262  and  _263
REMARK  106  A    between atoms: _262  and  _265
REMARK  107  A    between atoms: _265  and  _266
REMARK  108  A    between atoms: _269  and  _271
REMARK  109  A    between atoms: _271  and  _272
REMARK  110  A    between atoms: _271  and  _274
REMARK  111  A    between atoms: _274  and  _275
REMARK  112  A    between atoms: _278  and  _280
REMARK  113  A    between atoms: _280  and  _281
REMARK  114  A    between atoms: _280  and  _283
REMARK  115  A    between atoms: _283  and  _284
REMARK  116  A    between atoms: _289  and  _290
REMARK  117  A    between atoms: _292  and  _294
REMARK  118  A    between atoms: _294  and  _295
REMARK  119  A    between atoms: _294  and  _297
REMARK  120  A    between atoms: _297  and  _298
REMARK  121  A    between atoms: _301  and  _303
REMARK  122  A    between atoms: _303  and  _304
REMARK  123  A    between atoms: _303  and  _306
REMARK  124  A    between atoms: _306  and  _307
REMARK  125  A    between atoms: _307  and  _308
REMARK  126  A    between atoms: _310  and  _312
REMARK  127  A    between atoms: _312  and  _313
REMARK  128  A    between atoms: _312  and  _315
REMARK  129  A    between atoms: _315  and  _316
REMARK  130  A    between atoms: _319  and  _321
REMARK  131  A    between atoms: _321  and  _322
REMARK  132  A    between atoms: _325  and  _327
REMARK  133  A    between atoms: _327  and  _328
REMARK  134  A    between atoms: _327  and  _330
REMARK  135  A    between atoms: _330  and  _331
REMARK  136  A    between atoms: _333  and  _335
REMARK  137  A    between atoms: _335  and  _336
REMARK  138  A    between atoms: _335  and  _338
REMARK  139  A    between atoms: _338  and  _339
REMARK  140  A    between atoms: _342  and  _344
REMARK  141  A    between atoms: _344  and  _345
REMARK  142  A    between atoms: _344  and  _347
REMARK  143  A    between atoms: _347  and  _348
REMARK  144  A    between atoms: _348  and  _349
REMARK  145  A    between atoms: _351  and  _353
REMARK  146  A    between atoms: _353  and  _354
REMARK  147  A    between atoms: _356  and  _358
REMARK  148  A    between atoms: _358  and  _359
REMARK  149  A    between atoms: _358  and  _361
REMARK  150  A    between atoms: _364  and  _366
REMARK  151  A    between atoms: _366  and  _367
REMARK  152  A    between atoms: _366  and  _369
REMARK  153  A    between atoms: _369  and  _370
REMARK  154  A    between atoms: _373  and  _375
REMARK  155  A    between atoms: _375  and  _376
REMARK  156  A    between atoms: _375  and  _378
REMARK  157  A    between atoms: _378  and  _379
REMARK  158  A    between atoms: _382  and  _384
REMARK  159  A    between atoms: _384  and  _385
REMARK  160  A    between atoms: _384  and  _387
REMARK  161  A    between atoms: _387  and  _388
REMARK  162  A    between atoms: _390  and  _392
REMARK  163  A    between atoms: _392  and  _393
REMARK  164  A    between atoms: _392  and  _395
REMARK  165  A    between atoms: _395  and  _396
REMARK  166  A    between atoms: _396  and  _397
REMARK  167  A    between atoms: _400  and  _402
REMARK  168  A    between atoms: _402  and  _403
REMARK  169  A    between atoms: _405  and  _407
REMARK  170  A    between atoms: _407  and  _408
REMARK  171  A    between atoms: _407  and  _410
REMARK  172  A    between atoms: _410  and  _411
REMARK  173  A    between atoms: _417  and  _419
REMARK  174  A    between atoms: _419  and  _420
REMARK  175  A    between atoms: _419  and  _422
REMARK  176  A    between atoms: _422  and  _423
REMARK  177  A    between atoms: _423  and  _424
REMARK  178  A    between atoms: _426  and  _428
REMARK  179  A    between atoms: _428  and  _429
REMARK  180  A    between atoms: _428  and  _431
REMARK  181  A    between atoms: _431  and  _432
REMARK  182  A    between atoms: _435  and  _437
REMARK  183  A    between atoms: _437  and  _438
REMARK  184  A    between atoms: _437  and  _440
REMARK  185  A    between atoms: _440  and  _441
REMARK  186  A    between atoms: _447  and  _449
REMARK  187  A    between atoms: _449  and  _450
REMARK  188  A    between atoms: _449  and  _452
REMARK  189  A    between atoms: _452  and  _453
REMARK  190  A    between atoms: _456  and  _458
REMARK  191  A    between atoms: _458  and  _459
REMARK  192  A    between atoms: _458  and  _461
REMARK  193  A    between atoms: _461  and  _462
REMARK  194  A    between atoms: _465  and  _467
REMARK  195  A    between atoms: _467  and  _468
REMARK  196  A    between atoms: _467  and  _470
REMARK  197  A    between atoms: _470  and  _471
REMARK  198  A    between atoms: _477  and  _479
REMARK  199  A    between atoms: _479  and  _480
REMARK  200  A    between atoms: _479  and  _482
REMARK  201  A    between atoms: _482  and  _483
REMARK  202  A    between atoms: _483  and  _484
REMARK  203  A    between atoms: _486  and  _488
REMARK  204  A    between atoms: _488  and  _489
REMARK  205  A    between atoms: _488  and  _491
REMARK  206  A    between atoms: _491  and  _492
REMARK  207  A    between atoms: _492  and  _493
REMARK  208  A    between atoms: _493  and  _494
REMARK  209  A    between atoms: _494  and  _495
REMARK  210  A    between atoms: _499  and  _501
REMARK  211  A    between atoms: _501  and  _502
REMARK  212  A    between atoms: _501  and  _504
REMARK  213  A    between atoms: _504  and  _505
REMARK  214  A    between atoms: _511  and  _513
REMARK  215  A    between atoms: _513  and  _514
REMARK  216  A    between atoms: _513  and  _516
REMARK  217  A    between atoms: _516  and  _517
REMARK  218  A    between atoms: _520  and  _522
REMARK  219  A    between atoms: _522  and  _523
REMARK  220  A    between atoms: _522  and  _525
REMARK  221  A    between atoms: _528  and  _530
REMARK  222  A    between atoms: _530  and  _531
REMARK  223  A    between atoms: _530  and  _533
REMARK  224  A    between atoms: _533  and  _534
REMARK  225  A    between atoms: _539  and  _541
REMARK  226  A    between atoms: _541  and  _542
REMARK  227  A    between atoms: _541  and  _544
REMARK  228  A    between atoms: _547  and  _549
REMARK  229  A    between atoms: _549  and  _550
REMARK  230  A    between atoms: _549  and  _552
REMARK  231  A    between atoms: _552  and  _553
REMARK  232  A    between atoms: _556  and  _558
REMARK  233  A    between atoms: _558  and  _559
REMARK  234  A    between atoms: _558  and  _561
REMARK  235  A    between atoms: _561  and  _562
REMARK  236  A    between atoms: _565  and  _567
REMARK  237  A    between atoms: _567  and  _568
REMARK  238  A    between atoms: _567  and  _570
REMARK  239  A    between atoms: _570  and  _571
REMARK  240  A    between atoms: _571  and  _572
REMARK  241  A    between atoms: _574  and  _576
REMARK  242  A    between atoms: _576  and  _577
REMARK  243  A    between atoms: _576  and  _579
REMARK  244  A    between atoms: _579  and  _580
REMARK  245  A    between atoms: _582  and  _584
REMARK  246  A    between atoms: _584  and  _585
REMARK  247  A    between atoms: _584  and  _587
REMARK  248  A    between atoms: _587  and  _588
REMARK  249  A    between atoms: _591  and  _593
REMARK  250  A    between atoms: _593  and  _594
REMARK  251  A    between atoms: _593  and  _596
REMARK  252  A    between atoms: _596  and  _597
REMARK  253  A    between atoms: _602  and  _604
REMARK  254  A    between atoms: _604  and  _605
REMARK  255  A    between atoms: _604  and  _607
REMARK  256  A    between atoms: _607  and  _608
REMARK  257  A    between atoms: _611  and  _613
REMARK  258  A    between atoms: _613  and  _614
REMARK  259  A    between atoms: _613  and  _616
REMARK  260  A    between atoms: _616  and  _617
REMARK  261  A    between atoms: _620  and  _622
REMARK  262  A    between atoms: _622  and  _623
REMARK  263  A    between atoms: _622  and  _625
REMARK  264  A    between atoms: _625  and  _626
REMARK  265  A    between atoms: _626  and  _627
REMARK  266  A    between atoms: _632  and  _634
REMARK  267  A    between atoms: _634  and  _635
REMARK  268  A    between atoms: _634  and  _637
REMARK  269  A    between atoms: _637  and  _638
REMARK  270  A    between atoms: _641  and  _643
REMARK  271  A    between atoms: _643  and  _644
REMARK  272  A    between atoms: _643  and  _646
REMARK  273  A    between atoms: _646  and  _647
REMARK  274  A    between atoms: _652  and  _653
REMARK                            x       y       z     vdW  Elec       q    Type
REMARK                         _______ _______ _______ _____ _____    ______ ____
ROOT
ATOM      1  CG  TYR A   1       2.464   9.705  21.322  0.00  0.00    -0.020 A 
ATOM      2  CD2 TYR A   1       3.397   8.777  21.786  0.00  0.00    -0.001 A 
ATOM      3  CE2 TYR A   1       3.183   7.410  21.647  0.00  0.00    +0.036 A 
ATOM      4  CZ  TYR A   1       2.025   6.956  21.032  0.00  0.00    +0.134 A 
ATOM      5  CE1 TYR A   1       1.083   7.868  20.554  0.00  0.00    +0.036 A 
ATOM      6  CD1 TYR A   1       1.311   9.229  20.701  0.00  0.00    -0.001 A 
ENDROOT
BRANCH   4   7
ATOM      7  OH  TYR A   1       1.796   5.598  20.892  0.00  0.00    -0.506 OA
ATOM      8  HH  TYR A   1       2.524   5.195  20.355  0.00  0.00    +0.292 HD
ENDBRANCH   4   7
BRANCH   1   9
ATOM      9  CB  TYR A   1       2.659  11.186  21.558  0.00  0.00    +0.051 C 
BRANCH   9  10
ATOM     10  CA  TYR A   1       1.610  11.786  22.505  0.00  0.00    +0.137 C 
BRANCH  10  11
ATOM     11  N   TYR A   1       1.847  13.211  22.663  0.00  0.00    -0.239 NA
ATOM     12  H   TYR A   1       2.662  13.653  22.191  0.00  0.00    +0.142 HD
ENDBRANCH  10  11
BRANCH  10  13
ATOM     13  C   TYR A   1       1.651  11.085  23.872  0.00  0.00    +0.224 C 
ATOM     14  O   TYR A   1       0.747  10.331  24.209  0.00  0.00    -0.287 OA
ENDBRANCH  10  13
ENDBRANCH   9  10
ENDBRANCH   1   9
TORSDOF 5
REMARK  Name = ../refined-set-2016/2i4j/2i4j_pocket.pdb
REMARK  274 active torsions:
REMARK  status: ('A' for Active; 'I' for Inactive)
REMARK    1  A    between atoms: _1  and  _3
REMARK    2  A    between atoms: _3  and  _4
REMARK    3  A    between atoms: _3  and  _6
REMARK    4  A    between atoms: _6  and  _7
REMARK    5  A    between atoms: _12  and  _13
REMARK    6  A    between atoms: _15  and  _17
REMARK    7  A    between atoms: _17  and  _18
REMARK    8  A    between atoms: _17  and  _20
REMARK    9  A    between atoms: _20  and  _21
REMARK   10  A    between atoms: _23  and  _25
REMARK   11  A    between atoms: _25  and  _26
REMARK   12  A    between atoms: _25  and  _28
REMARK   13  A    between atoms: _28  and  _29
REMARK   14  A    between atoms: _36  and  _37
REMARK   15  A    between atoms: _42  and  _44
REMARK   16  A    between atoms: _44  and  _45
REMARK   17  A    between atoms: _44  and  _47
REMARK   18  A    between atoms: _47  and  _48
REMARK   19  A    between atoms: _51  and  _53
REMARK   20  A    between atoms: _53  and  _54
REMARK   21  A    between atoms: _53  and  _56
REMARK   22  A    between atoms: _56  and  _57
REMARK   23  A    between atoms: _60  and  _62
REMARK   24  A    between atoms: _62  and  _63
REMARK   25  A    between atoms: _62  and  _65
REMARK   26  A    between atoms: _65  and  _66
REMARK   27  A    between atoms: _72  and  _74
REMARK   28  A    between atoms: _74  and  _75
REMARK   29  A    between atoms: _74  and  _77
REMARK   30  A    between atoms: _77  and  _78
REMARK   31  A    between atoms: _78  and  _79
REMARK   32  A    between atoms: _84  and  _86
REMARK   33  A    between atoms: _86  and  _87
REMARK   34  A    between atoms: _89  and  _91
REMARK   35  A    between atoms: _91  and  _92
REMARK   36  A    between atoms: _91  and  _94
REMARK   37  A    between atoms: _96  and  _98
REMARK   38  A    between atoms: _98  and  _99
REMARK   39  A    between atoms: _98  and  _101
REMARK   40  A    between atoms: _101  and  _102
REMARK   41  A    between atoms: _102  and  _103
REMARK   42  A    between atoms: _108  and  _110
REMARK   43  A    between atoms: _110  and  _111
REMARK   44  A    between atoms: _110  and  _113
REMARK   45  A    between atoms: _113  and  _114
REMARK   46  A    between atoms: _120  and  _122
REMARK   47  A    between atoms: _122  and  _123
REMARK   48  A    between atoms: _122  and  _125
REMARK   49  A    between atoms: _125  and  _126
REMARK   50  A    between atoms: _126  and  _127
REMARK   51  A    between atoms: _127  and  _128
REMARK   52  A    between atoms: _137  and  _139
REMARK   53  A    between atoms: _139  and  _140
REMARK   54  A    between atoms: _139  and  _142
REMARK   55  A    between atoms: _142  and  _143
REMARK   56  A    between atoms: _145  and  _147
REMARK   57  A    between atoms: _147  and  _148
REMARK   58  A    between atoms: _147  and  _150
REMARK   59  A    between atoms: _153  and  _155
REMARK   60  A    between atoms: _155  and  _156
REMARK   61  A    between atoms: _155  and  _158
REMARK   62  A    between atoms: _158  and  _159
REMARK   63  A    between atoms: _159  and  _160
REMARK   64  A    between atoms: _163  and  _165
REMARK   65  A    between atoms: _165  and  _166
REMARK   66  A    between atoms: _169  and  _171
REMARK   67  A    between atoms: _171  and  _172
REMARK   68  A    between atoms: _171  and  _174
REMARK   69  A    between atoms: _177  and  _179
REMARK   70  A    between atoms: _179  and  _180
REMARK   71  A    between atoms: _179  and  _182
REMARK   72  A    between atoms: _182  and  _183
REMARK   73  A    between atoms: _183  and  _184
REMARK   74  A    between atoms: _189  and  _191
REMARK   75  A    between atoms: _191  and  _192
REMARK   76  A    between atoms: _191  and  _194
REMARK   77  A    between atoms: _194  and  _195
REMARK   78  A    between atoms: _195  and  _196
REMARK   79  A    between atoms: _199  and  _201
REMARK   80  A    between atoms: _201  and  _202
REMARK   81  A    between atoms: _201  and  _204
REMARK   82  A    between atoms: _204  and  _205
REMARK   83  A    between atoms: _208  and  _210
REMARK   84  A    between atoms: _210  and  _211
REMARK   85  A    between atoms: _210  and  _213
REMARK   86  A    between atoms: _213  and  _214
REMARK   87  A    between atoms: _217  and  _219
REMARK   88  A    between atoms: _219  and  _220
REMARK   89  A    between atoms: _219  and  _222
REMARK   90  A    between atoms: _222  and  _223
REMARK   91  A    between atoms: _228  and  _229
REMARK   92  A    between atoms: _231  and  _233
REMARK   93  A    between atoms: _233  and  _234
REMARK   94  A    between atoms: _233  and  _236
REMARK   95  A    between atoms: _239  and  _241
REMARK   96  A    between atoms: _241  and  _242
REMARK   97  A    between atoms: _241  and  _244
REMARK   98  A    between atoms: _244  and  _245
REMARK   99  A    between atoms: _250  and  _252
REMARK  100  A    between atoms: _252  and  _253
REMARK  101  A    between atoms: _252  and  _255
REMARK  102  A    between atoms: _255  and  _256
REMARK  103  A    between atoms: _256  and  _257
REMARK  104  A    between atoms: _260  and  _262
REMARK  105  A    between atoms: _262  and  _263
REMARK  106  A    between atoms: _262  and  _265
REMARK  107  A    between atoms: _265  and  _266
REMARK  108  A    between atoms: _269  and  _271
REMARK  109  A    between atoms: _271  and  _272
REMARK  110  A    between atoms: _271  and  _274
REMARK  111  A    between atoms: _274  and  _275
REMARK  112  A    between atoms: _278  and  _280
REMARK  113  A    between atoms: _280  and  _281
REMARK  114  A    between atoms: _280  and  _283
REMARK  115  A    between atoms: _283  and  _284
REMARK  116  A    between atoms: _289  and  _290
REMARK  117  A    between atoms: _292  and  _294
REMARK  118  A    between atoms: _294  and  _295
REMARK  119  A    between atoms: _294  and  _297
REMARK  120  A    between atoms: _297  and  _298
REMARK  121  A    between atoms: _301  and  _303
REMARK  122  A    between atoms: _303  and  _304
REMARK  123  A    between atoms: _303  and  _306
REMARK  124  A    between atoms: _306  and  _307
REMARK  125  A    between atoms: _307  and  _308
REMARK  126  A    between atoms: _310  and  _312
REMARK  127  A    between atoms: _312  and  _313
REMARK  128  A    between atoms: _312  and  _315
REMARK  129  A    between atoms: _315  and  _316
REMARK  130  A    between atoms: _319  and  _321
REMARK  131  A    between atoms: _321  and  _322
REMARK  132  A    between atoms: _325  and  _327
REMARK  133  A    between atoms: _327  and  _328
REMARK  134  A    between atoms: _327  and  _330
REMARK  135  A    between atoms: _330  and  _331
REMARK  136  A    between atoms: _333  and  _335
REMARK  137  A    between atoms: _335  and  _336
REMARK  138  A    between atoms: _335  and  _338
REMARK  139  A    between atoms: _338  and  _339
REMARK  140  A    between atoms: _342  and  _344
REMARK  141  A    between atoms: _344  and  _345
REMARK  142  A    between atoms: _344  and  _347
REMARK  143  A    between atoms: _347  and  _348
REMARK  144  A    between atoms: _348  and  _349
REMARK  145  A    between atoms: _351  and  _353
REMARK  146  A    between atoms: _353  and  _354
REMARK  147  A    between atoms: _356  and  _358
REMARK  148  A    between atoms: _358  and  _359
REMARK  149  A    between atoms: _358  and  _361
REMARK  150  A    between atoms: _364  and  _366
REMARK  151  A    between atoms: _366  and  _367
REMARK  152  A    between atoms: _366  and  _369
REMARK  153  A    between atoms: _369  and  _370
REMARK  154  A    between atoms: _373  and  _375
REMARK  155  A    between atoms: _375  and  _376
REMARK  156  A    between atoms: _375  and  _378
REMARK  157  A    between atoms: _378  and  _379
REMARK  158  A    between atoms: _382  and  _384
REMARK  159  A    between atoms: _384  and  _385
REMARK  160  A    between atoms: _384  and  _387
REMARK  161  A    between atoms: _387  and  _388
REMARK  162  A    between atoms: _390  and  _392
REMARK  163  A    between atoms: _392  and  _393
REMARK  164  A    between atoms: _392  and  _395
REMARK  165  A    between atoms: _395  and  _396
REMARK  166  A    between atoms: _396  and  _397
REMARK  167  A    between atoms: _400  and  _402
REMARK  168  A    between atoms: _402  and  _403
REMARK  169  A    between atoms: _405  and  _407
REMARK  170  A    between atoms: _407  and  _408
REMARK  171  A    between atoms: _407  and  _410
REMARK  172  A    between atoms: _410  and  _411
REMARK  173  A    between atoms: _417  and  _419
REMARK  174  A    between atoms: _419  and  _420
REMARK  175  A    between atoms: _419  and  _422
REMARK  176  A    between atoms: _422  and  _423
REMARK  177  A    between atoms: _423  and  _424
REMARK  178  A    between atoms: _426  and  _428
REMARK  179  A    between atoms: _428  and  _429
REMARK  180  A    between atoms: _428  and  _431
REMARK  181  A    between atoms: _431  and  _432
REMARK  182  A    between atoms: _435  and  _437
REMARK  183  A    between atoms: _437  and  _438
REMARK  184  A    between atoms: _437  and  _440
REMARK  185  A    between atoms: _440  and  _441
REMARK  186  A    between atoms: _447  and  _449
REMARK  187  A    between atoms: _449  and  _450
REMARK  188  A    between atoms: _449  and  _452
REMARK  189  A    between atoms: _452  and  _453
REMARK  190  A    between atoms: _456  and  _458
REMARK  191  A    between atoms: _458  and  _459
REMARK  192  A    between atoms: _458  and  _461
REMARK  193  A    between atoms: _461  and  _462
REMARK  194  A    between atoms: _465  and  _467
REMARK  195  A    between atoms: _467  and  _468
REMARK  196  A    between atoms: _467  and  _470
REMARK  197  A    between atoms: _470  and  _471
REMARK  198  A    between atoms: _477  and  _479
REMARK  199  A    between atoms: _479  and  _480
REMARK  200  A    between atoms: _479  and  _482
REMARK  201  A    between atoms: _482  and  _483
REMARK  202  A    between atoms: _483  and  _484
REMARK  203  A    between atoms: _486  and  _488
REMARK  204  A    between atoms: _488  and  _489
REMARK  205  A    between atoms: _488  and  _491
REMARK  206  A    between atoms: _491  and  _492
REMARK  207  A    between atoms: _492  and  _493
REMARK  208  A    between atoms: _493  and  _494
REMARK  209  A    between atoms: _494  and  _495
REMARK  210  A    between atoms: _499  and  _501
REMARK  211  A    between atoms: _501  and  _502
REMARK  212  A    between atoms: _501  and  _504
REMARK  213  A    between atoms: _504  and  _505
REMARK  214  A    between atoms: _511  and  _513
REMARK  215  A    between atoms: _513  and  _514
REMARK  216  A    between atoms: _513  and  _516
REMARK  217  A    between atoms: _516  and  _517
REMARK  218  A    between atoms: _520  and  _522
REMARK  219  A    between atoms: _522  and  _523
REMARK  220  A    between atoms: _522  and  _525
REMARK  221  A    between atoms: _528  and  _530
REMARK  222  A    between atoms: _530  and  _531
REMARK  223  A    between atoms: _530  and  _533
REMARK  224  A    between atoms: _533  and  _534
REMARK  225  A    between atoms: _539  and  _541
REMARK  226  A    between atoms: _541  and  _542
REMARK  227  A    between atoms: _541  and  _544
REMARK  228  A    between atoms: _547  and  _549
REMARK  229  A    between atoms: _549  and  _550
REMARK  230  A    between atoms: _549  and  _552
REMARK  231  A    between atoms: _552  and  _553
REMARK  232  A    between atoms: _556  and  _558
REMARK  233  A    between atoms: _558  and  _559
REMARK  234  A    between atoms: _558  and  _561
REMARK  235  A    between atoms: _561  and  _562
REMARK  236  A    between atoms: _565  and  _567
REMARK  237  A    between atoms: _567  and  _568
REMARK  238  A    between atoms: _567  and  _570
REMARK  239  A    between atoms: _570  and  _571
REMARK  240  A    between atoms: _571  and  _572
REMARK  241  A    between atoms: _574  and  _576
REMARK  242  A    between atoms: _576  and  _577
REMARK  243  A    between atoms: _576  and  _579
REMARK  244  A    between atoms: _579  and  _580
REMARK  245  A    between atoms: _582  and  _584
REMARK  246  A    between atoms: _584  and  _585
REMARK  247  A    between atoms: _584  and  _587
REMARK  248  A    between atoms: _587  and  _588
REMARK  249  A    between atoms: _591  and  _593
REMARK  250  A    between atoms: _593  and  _594
REMARK  251  A    between atoms: _593  and  _596
REMARK  252  A    between atoms: _596  and  _597
REMARK  253  A    between atoms: _602  and  _604
REMARK  254  A    between atoms: _604  and  _605
REMARK  255  A    between atoms: _604  and  _607
REMARK  256  A    between atoms: _607  and  _608
REMARK  257  A    between atoms: _611  and  _613
REMARK  258  A    between atoms: _613  and  _614
REMARK  259  A    between atoms: _613  and  _616
REMARK  260  A    between atoms: _616  and  _617
REMARK  261  A    between atoms: _620  and  _622
REMARK  262  A    between atoms: _622  and  _623
REMARK  263  A    between atoms: _622  and  _625
REMARK  264  A    between atoms: _625  and  _626
REMARK  265  A    between atoms: _626  and  _627
REMARK  266  A    between atoms: _632  and  _634
REMARK  267  A    between atoms: _634  and  _635
REMARK  268  A    between atoms: _634  and  _637
REMARK  269  A    between atoms: _637  and  _638
REMARK  270  A    between atoms: _641  and  _643
REMARK  271  A    between atoms: _643  and  _644
REMARK  272  A    between atoms: _643  and  _646
REMARK  273  A    between atoms: _646  and  _647
REMARK  274  A    between atoms: _652  and  _653
REMARK                            x       y       z     vdW  Elec       q    Type
REMARK                         _______ _______ _______ _____ _____    ______ ____
ROOT
ATOM      1  C   TYR A   6      15.348   8.130  16.098  0.00  0.00    +0.241 C 
ATOM      2  N   THR A   7      14.394   7.546  16.815  0.00  0.00    -0.295 N 
ATOM      3  H   THR A   7      14.202   7.884  17.780  0.00  0.00    +0.150 HD
ATOM      4  O   TYR A   6      15.644   7.765  14.969  0.00  0.00    -0.273 OA
ENDROOT
BRANCH   2   5
ATOM      5  CA  THR A   7      13.608   6.436  16.273  0.00  0.00    +0.176 C 
BRANCH   5   6
ATOM      6  C   THR A   7      12.772   6.948  15.102  0.00  0.00    +0.243 C 
ATOM      7  N   MET A   8      12.039   8.027  15.356  0.00  0.00    -0.297 N 
ATOM      8  H   MET A   8      12.083   8.448  16.306  0.00  0.00    +0.150 HD
ATOM      9  O   THR A   7      12.793   6.382  14.008  0.00  0.00    -0.273 OA
BRANCH   7  10
ATOM     10  CA  MET A   8      11.181   8.640  14.362  0.00  0.00    +0.149 C 
BRANCH  10  11
ATOM     11  C   MET A   8      11.972   9.302  13.247  0.00  0.00    +0.241 C 
ATOM     12  N   LEU A   9      13.151   9.815  13.573  0.00  0.00    -0.297 N 
ATOM     13  H   LEU A   9      13.474   9.765  14.560  0.00  0.00    +0.150 HD
ATOM     14  O   MET A   8      11.526   9.335  12.106  0.00  0.00    -0.273 OA
BRANCH  12  15
ATOM     15  CA  LEU A   9      14.004  10.448  12.571  0.00  0.00    +0.149 C 
BRANCH  15  16
ATOM     16  C   LEU A   9      14.345   9.440  11.467  0.00  0.00    +0.241 C 
ATOM     17  N   ALA A  10      14.442   8.169  11.845  0.00  0.00    -0.297 N 
ATOM     18  H   ALA A  10      14.288   7.926  12.844  0.00  0.00    +0.150 HD
ATOM     19  O   LEU A   9      14.515   9.800  10.307  0.00  0.00    -0.273 OA
BRANCH  17  20
ATOM     20  CA  ALA A  10      14.759   7.105  10.898  0.00  0.00    +0.149 C 
ATOM     21  CB  ALA A  10      14.931   5.791  11.641  0.00  0.00    +0.031 C 
BRANCH  20  22
ATOM     22  C   ALA A  10      13.662   6.967   9.839  0.00  0.00    +0.241 C 
ATOM     23  N   SER A  11      12.423   7.277  10.201  0.00  0.00    -0.295 N 
ATOM     24  H   SER A  11      12.230   7.590  11.174  0.00  0.00    +0.150 HD
ATOM     25  O   ALA A  10      13.934   6.578   8.708  0.00  0.00    -0.273 OA
BRANCH  23  26
ATOM     26  CA  SER A  11      11.327   7.179   9.234  0.00  0.00    +0.178 C 
BRANCH  26  27
ATOM     27  C   SER A  11      11.555   8.147   8.076  0.00  0.00    +0.243 C 
ATOM     28  N   LEU A  12      12.245   9.248   8.354  0.00  0.00    -0.297 N 
ATOM     29  H   LEU A  12      12.617   9.388   9.315  0.00  0.00    +0.150 HD
ATOM     30  O   SER A  11      11.126   7.896   6.957  0.00  0.00    -0.273 OA
BRANCH  28  31
ATOM     31  CA  LEU A  12      12.490  10.259   7.341  0.00  0.00    +0.149 C 
BRANCH  31  32
ATOM     32  C   LEU A  12      13.826  10.104   6.619  0.00  0.00    +0.241 C 
ATOM     33  N   MET A  13      14.518   8.991   6.842  0.00  0.00    -0.298 N 
ATOM     34  H   MET A  13      14.118   8.262   7.467  0.00  0.00    +0.150 HD
ATOM     35  O   LEU A  12      14.215  10.988   5.857  0.00  0.00    -0.273 OA
BRANCH  33  36
ATOM     36  CA  MET A  13      15.825   8.765   6.233  0.00  0.00    +0.138 C 
BRANCH  36  37
ATOM     37  C   MET A  13      15.956   7.507   5.372  0.00  0.00    +0.227 C 
ATOM     38  O   MET A  13      15.216   6.533   5.517  0.00  0.00    -0.286 OA
ENDBRANCH  36  37
BRANCH  36  39
ATOM     39  CB  MET A  13      16.912   8.641   7.317  0.00  0.00    +0.039 C 
BRANCH  39  40
ATOM     40  CG  MET A  13      16.999   9.748   8.355  0.00  0.00    +0.060 C 
BRANCH  40  41
ATOM     41  SD  MET A  13      18.313   9.402   9.575  0.00  0.00    -0.139 S 
ATOM     42  CE  MET A  13      19.244  10.928   9.550  0.00  0.00    +0.069 C 
ENDBRANCH  40  41
ENDBRANCH  39  40
ENDBRANCH  36  39
ENDBRANCH  33  36
ENDBRANCH  31  32
BRANCH  31  43
ATOM     43  CB  LEU A  12      12.427  11.652   7.981  0.00  0.00    +0.029 C 
BRANCH  43  44
ATOM     44  CG  LEU A  12      11.343  11.960   9.025  0.00  0.00    +0.002 C 
ATOM     45  CD2 LEU A  12      11.306  13.462   9.287  0.00  0.00    +0.000 C 
ATOM     46  CD1 LEU A  12       9.990  11.505   8.550  0.00  0.00    +0.000 C 
ENDBRANCH  43  44
ENDBRANCH  31  43
ENDBRANCH  28  31
ENDBRANCH  26  27
BRANCH  26  47
ATOM     47  CB  SER A  11       9.988   7.514   9.892  0.00  0.00    +0.166 C 
BRANCH  47  48
ATOM     48  OG  SER A  11       9.704   6.637  10.961  0.00  0.00    -0.380 OA
ATOM     49  H   SER A  11       8.833   6.881  11.364  0.00  0.00    +0.211 HD
ENDBRANCH  47  48
ENDBRANCH  26  47
ENDBRANCH  23  26
ENDBRANCH  20  22
ENDBRANCH  17  20
ENDBRANCH  15  16
BRANCH  15  50
ATOM     50  CB  LEU A   9      15.294  10.947  13.221  0.00  0.00    +0.029 C 
BRANCH  50  51
ATOM     51  CG  LEU A   9      16.327  11.518  12.255  0.00  0.00    +0.002 C 
ATOM     52  CD2 LEU A   9      17.606  11.891  13.007  0.00  0.00    +0.000 C 
ATOM     53  CD1 LEU A   9      15.718  12.732  11.557  0.00  0.00    +0.000 C 
ENDBRANCH  50  51
ENDBRANCH  15  50
ENDBRANCH  12  15
ENDBRANCH  10  11
BRANCH  10  54
ATOM     54  CB  MET A   8      10.248   9.634  15.050  0.00  0.00    +0.041 C 
BRANCH  54  55
ATOM     55  CG  MET A   8       9.312   8.930  16.008  0.00  0.00    +0.060 C 
BRANCH  55  56
ATOM     56  SD  MET A   8       8.063   9.976  16.715  0.00  0.00    -0.139 S 
ATOM     57  CE  MET A   8       6.904  10.056  15.354  0.00  0.00    +0.069 C 
ENDBRANCH  55  56
ENDBRANCH  54  55
ENDBRANCH  10  54
ENDBRANCH   7  10
ENDBRANCH   5   6
BRANCH   5  58
ATOM     58  CB  THR A   7      12.642   5.870  17.330  0.00  0.00    +0.137 C 
ATOM     59  CG2 THR A   7      11.690   4.856  16.713  0.00  0.00    +0.034 C 
BRANCH  58  60
ATOM     60  OG1 THR A   7      13.395   5.242  18.375  0.00  0.00    -0.382 OA
ATOM     61  HG1 THR A   7      13.993   5.909  18.796  0.00  0.00    +0.210 HD
ENDBRANCH  58  60
ENDBRANCH   5  58
ENDBRANCH   2   5
BRANCH   1  62
ATOM     62  CA  TYR A   6      16.084   9.300  16.739  0.00  0.00    +0.153 C 
BRANCH  62  64
ATOM     63  C   ILE A   5      14.248  10.803  17.219  0.00  0.00    +0.241 C 
ATOM     64  N   TYR A   6      15.244  10.044  17.677  0.00  0.00    -0.297 N 
ATOM     65  H   TYR A   6      15.423   9.981  18.700  0.00  0.00    +0.150 HD
ATOM     66  O   ILE A   5      14.002  10.905  16.014  0.00  0.00    -0.273 OA
BRANCH  63  67
ATOM     67  CA  ILE A   5      13.400  11.565  18.246  0.00  0.00    +0.149 C 
BRANCH  67  69
ATOM     68  C   ILE A   4      12.385   9.573  19.186  0.00  0.00    +0.241 C 
ATOM     69  N   ILE A   5      13.011  10.730  19.375  0.00  0.00    -0.297 N 
ATOM     70  H   ILE A   5      13.226  11.044  20.343  0.00  0.00    +0.150 HD
ATOM     71  O   ILE A   4      12.115   9.142  18.060  0.00  0.00    -0.273 OA
BRANCH  68  72
ATOM     72  CA  ILE A   4      12.043   8.772  20.445  0.00  0.00    +0.149 C 
BRANCH  72  74
ATOM     73  C   GLU A   3      14.313   8.167  21.030  0.00  0.00    +0.241 C 
ATOM     74  N   ILE A   4      13.184   8.783  21.358  0.00  0.00    -0.297 N 
ATOM     75  H   ILE A   4      13.111   9.277  22.270  0.00  0.00    +0.150 HD
ATOM     76  O   GLU A   3      14.437   7.564  19.973  0.00  0.00    -0.273 OA
BRANCH  73  77
ATOM     77  CA  GLU A   3      15.471   8.257  22.036  0.00  0.00    +0.149 C 
BRANCH  77  79
ATOM     78  C   HIS A   2      15.748  10.641  21.751  0.00  0.00    +0.241 C 
ATOM     79  N   GLU A   3      15.495   9.620  22.558  0.00  0.00    -0.297 N 
ATOM     80  H   GLU A   3      15.313   9.791  23.568  0.00  0.00    +0.150 HD
ATOM     81  O   HIS A   2      16.022  10.496  20.559  0.00  0.00    -0.273 OA
BRANCH  78  82
ATOM     82  CA  HIS A   2      15.689  12.032  22.354  0.00  0.00    +0.155 C 
BRANCH  82  84
ATOM     83  C   VAL A   1      13.408  12.134  23.111  0.00  0.00    +0.238 C 
ATOM     84  N   HIS A   2      14.700  12.195  23.408  0.00  0.00    -0.297 N 
ATOM     85  H   HIS A   2      15.004  12.358  24.389  0.00  0.00    +0.150 HD
ATOM     86  O   VAL A   1      13.010  11.935  21.967  0.00  0.00    -0.274 OA
BRANCH  83  87
ATOM     87  CA  VAL A   1      12.404  12.325  24.248  0.00  0.00    +0.145 C 
BRANCH  87  88
ATOM     88  CB  VAL A   1      12.412  13.808  24.696  0.00  0.00    +0.025 C 
ATOM     89  CG2 VAL A   1      10.999  14.222  25.087  0.00  0.00    +0.002 C 
ATOM     90  CG1 VAL A   1      12.927  14.704  23.582  0.00  0.00    +0.002 C 
ENDBRANCH  87  88
BRANCH  87  91
ATOM     91  N   VAL A   1      12.544  11.446  25.408  0.00  0.00    -0.238 NA
ATOM     92  H   VAL A   1      12.499  11.859  26.361  0.00  0.00    +0.142 HD
ENDBRANCH  87  91
ENDBRANCH  83  87
ENDBRANCH  82  84
BRANCH  82  93
ATOM     93  CB  HIS A   2      17.063  12.475  22.833  0.00  0.00    +0.076 C 
BRANCH  93  94
ATOM     94  CG  HIS A   2      17.229  13.959  22.826  0.00  0.00    +0.082 A 
ATOM     95  ND1 HIS A   2      16.837  14.757  23.878  0.00  0.00    -0.227 NA
ATOM     96  CE1 HIS A   2      17.015  16.025  23.555  0.00  0.00    +0.199 A 
ATOM     97  NE2 HIS A   2      17.512  16.077  22.333  0.00  0.00    -0.221 NA
ATOM     98  CD2 HIS A   2      17.656  14.798  21.855  0.00  0.00    +0.115 A 
ENDBRANCH  93  94
ENDBRANCH  82  93
ENDBRANCH  78  82
ENDBRANCH  77  79
BRANCH  77  99
ATOM     99  CB  GLU A   3      15.280   7.246  23.180  0.00  0.00    +0.041 C 
BRANCH  99 100
ATOM    100  CG  GLU A   3      16.517   7.128  24.082  0.00  0.00    +0.116 C 
BRANCH 100 101
ATOM    101  CD  GLU A   3      16.327   6.169  25.241  0.00  0.00    +0.365 C 
ATOM    102  OE2 GLU A   3      17.212   6.137  26.126  0.00  0.00    -0.246 OA
ATOM    103  OE1 GLU A   3      15.303   5.445  25.264  0.00  0.00    -0.246 OA
ENDBRANCH 100 101
ENDBRANCH  99 100
ENDBRANCH  77  99
ENDBRANCH  73  77
ENDBRANCH  72  74
BRANCH  72 104
ATOM    104  CB  ILE A   4      10.802   9.346  21.142  0.00  0.00    +0.027 C 
ATOM    105  CG2 ILE A   4       9.685   9.663  20.115  0.00  0.00    +0.002 C 
BRANCH 104 106
ATOM    106  CG1 ILE A   4      10.321   8.332  22.179  0.00  0.00    +0.002 C 
ATOM    107  CD1 ILE A   4       9.174   8.829  23.018  0.00  0.00    +0.000 C 
ENDBRANCH 104 106
ENDBRANCH  72 104
ENDBRANCH  68  72
ENDBRANCH  67  69
BRANCH  67 108
ATOM    108  CB  ILE A   5      14.178  12.809  18.727  0.00  0.00    +0.027 C 
ATOM    109  CG2 ILE A   5      15.026  13.363  17.595  0.00  0.00    +0.002 C 
BRANCH 108 110
ATOM    110  CG1 ILE A   5      13.195  13.859  19.263  0.00  0.00    +0.002 C 
ATOM    111  CD1 ILE A   5      13.862  15.134  19.793  0.00  0.00    +0.000 C 
ENDBRANCH 108 110
ENDBRANCH  67 108
ENDBRANCH  63  67
ENDBRANCH  62  64
BRANCH  62 112
ATOM    112  CB  TYR A   6      17.362   8.809  17.428  0.00  0.00    +0.055 C 
BRANCH 112 113
ATOM    113  CG  TYR A   6      18.157   9.938  18.026  0.00  0.00    -0.020 A 
ATOM    114  CD2 TYR A   6      18.615   9.876  19.340  0.00  0.00    -0.001 A 
ATOM    115  CE2 TYR A   6      19.312  10.934  19.907  0.00  0.00    +0.036 A 
ATOM    116  CZ  TYR A   6      19.560  12.070  19.152  0.00  0.00    +0.134 A 
ATOM    117  CE1 TYR A   6      19.114  12.158  17.842  0.00  0.00    +0.036 A 
ATOM    118  CD1 TYR A   6      18.420  11.095  17.286  0.00  0.00    -0.001 A 
BRANCH 116 119
ATOM    119  OH  TYR A   6      20.288  13.106  19.696  0.00  0.00    -0.506 OA
ATOM    120  HH  TYR A   6      20.373  13.834  19.030  0.00  0.00    +0.292 HD
ENDBRANCH 116 119
ENDBRANCH 112 113
ENDBRANCH  62 112
ENDBRANCH   1  62
TORSDOF 53
REMARK  Name = ../refined-set-2016/2i4j/2i4j_pocket.pdb
REMARK  274 active torsions:
REMARK  status: ('A' for Active; 'I' for Inactive)
REMARK    1  A    between atoms: _1  and  _3
REMARK    2  A    between atoms: _3  and  _4
REMARK    3  A    between atoms: _3  and  _6
REMARK    4  A    between atoms: _6  and  _7
REMARK    5  A    between atoms: _12  and  _13
REMARK    6  A    between atoms: _15  and  _17
REMARK    7  A    between atoms: _17  and  _18
REMARK    8  A    between atoms: _17  and  _20
REMARK    9  A    between atoms: _20  and  _21
REMARK   10  A    between atoms: _23  and  _25
REMARK   11  A    between atoms: _25  and  _26
REMARK   12  A    between atoms: _25  and  _28
REMARK   13  A    between atoms: _28  and  _29
REMARK   14  A    between atoms: _36  and  _37
REMARK   15  A    between atoms: _42  and  _44
REMARK   16  A    between atoms: _44  and  _45
REMARK   17  A    between atoms: _44  and  _47
REMARK   18  A    between atoms: _47  and  _48
REMARK   19  A    between atoms: _51  and  _53
REMARK   20  A    between atoms: _53  and  _54
REMARK   21  A    between atoms: _53  and  _56
REMARK   22  A    between atoms: _56  and  _57
REMARK   23  A    between atoms: _60  and  _62
REMARK   24  A    between atoms: _62  and  _63
REMARK   25  A    between atoms: _62  and  _65
REMARK   26  A    between atoms: _65  and  _66
REMARK   27  A    between atoms: _72  and  _74
REMARK   28  A    between atoms: _74  and  _75
REMARK   29  A    between atoms: _74  and  _77
REMARK   30  A    between atoms: _77  and  _78
REMARK   31  A    between atoms: _78  and  _79
REMARK   32  A    between atoms: _84  and  _86
REMARK   33  A    between atoms: _86  and  _87
REMARK   34  A    between atoms: _89  and  _91
REMARK   35  A    between atoms: _91  and  _92
REMARK   36  A    between atoms: _91  and  _94
REMARK   37  A    between atoms: _96  and  _98
REMARK   38  A    between atoms: _98  and  _99
REMARK   39  A    between atoms: _98  and  _101
REMARK   40  A    between atoms: _101  and  _102
REMARK   41  A    between atoms: _102  and  _103
REMARK   42  A    between atoms: _108  and  _110
REMARK   43  A    between atoms: _110  and  _111
REMARK   44  A    between atoms: _110  and  _113
REMARK   45  A    between atoms: _113  and  _114
REMARK   46  A    between atoms: _120  and  _122
REMARK   47  A    between atoms: _122  and  _123
REMARK   48  A    between atoms: _122  and  _125
REMARK   49  A    between atoms: _125  and  _126
REMARK   50  A    between atoms: _126  and  _127
REMARK   51  A    between atoms: _127  and  _128
REMARK   52  A    between atoms: _137  and  _139
REMARK   53  A    between atoms: _139  and  _140
REMARK   54  A    between atoms: _139  and  _142
REMARK   55  A    between atoms: _142  and  _143
REMARK   56  A    between atoms: _145  and  _147
REMARK   57  A    between atoms: _147  and  _148
REMARK   58  A    between atoms: _147  and  _150
REMARK   59  A    between atoms: _153  and  _155
REMARK   60  A    between atoms: _155  and  _156
REMARK   61  A    between atoms: _155  and  _158
REMARK   62  A    between atoms: _158  and  _159
REMARK   63  A    between atoms: _159  and  _160
REMARK   64  A    between atoms: _163  and  _165
REMARK   65  A    between atoms: _165  and  _166
REMARK   66  A    between atoms: _169  and  _171
REMARK   67  A    between atoms: _171  and  _172
REMARK   68  A    between atoms: _171  and  _174
REMARK   69  A    between atoms: _177  and  _179
REMARK   70  A    between atoms: _179  and  _180
REMARK   71  A    between atoms: _179  and  _182
REMARK   72  A    between atoms: _182  and  _183
REMARK   73  A    between atoms: _183  and  _184
REMARK   74  A    between atoms: _189  and  _191
REMARK   75  A    between atoms: _191  and  _192
REMARK   76  A    between atoms: _191  and  _194
REMARK   77  A    between atoms: _194  and  _195
REMARK   78  A    between atoms: _195  and  _196
REMARK   79  A    between atoms: _199  and  _201
REMARK   80  A    between atoms: _201  and  _202
REMARK   81  A    between atoms: _201  and  _204
REMARK   82  A    between atoms: _204  and  _205
REMARK   83  A    between atoms: _208  and  _210
REMARK   84  A    between atoms: _210  and  _211
REMARK   85  A    between atoms: _210  and  _213
REMARK   86  A    between atoms: _213  and  _214
REMARK   87  A    between atoms: _217  and  _219
REMARK   88  A    between atoms: _219  and  _220
REMARK   89  A    between atoms: _219  and  _222
REMARK   90  A    between atoms: _222  and  _223
REMARK   91  A    between atoms: _228  and  _229
REMARK   92  A    between atoms: _231  and  _233
REMARK   93  A    between atoms: _233  and  _234
REMARK   94  A    between atoms: _233  and  _236
REMARK   95  A    between atoms: _239  and  _241
REMARK   96  A    between atoms: _241  and  _242
REMARK   97  A    between atoms: _241  and  _244
REMARK   98  A    between atoms: _244  and  _245
REMARK   99  A    between atoms: _250  and  _252
REMARK  100  A    between atoms: _252  and  _253
REMARK  101  A    between atoms: _252  and  _255
REMARK  102  A    between atoms: _255  and  _256
REMARK  103  A    between atoms: _256  and  _257
REMARK  104  A    between atoms: _260  and  _262
REMARK  105  A    between atoms: _262  and  _263
REMARK  106  A    between atoms: _262  and  _265
REMARK  107  A    between atoms: _265  and  _266
REMARK  108  A    between atoms: _269  and  _271
REMARK  109  A    between atoms: _271  and  _272
REMARK  110  A    between atoms: _271  and  _274
REMARK  111  A    between atoms: _274  and  _275
REMARK  112  A    between atoms: _278  and  _280
REMARK  113  A    between atoms: _280  and  _281
REMARK  114  A    between atoms: _280  and  _283
REMARK  115  A    between atoms: _283  and  _284
REMARK  116  A    between atoms: _289  and  _290
REMARK  117  A    between atoms: _292  and  _294
REMARK  118  A    between atoms: _294  and  _295
REMARK  119  A    between atoms: _294  and  _297
REMARK  120  A    between atoms: _297  and  _298
REMARK  121  A    between atoms: _301  and  _303
REMARK  122  A    between atoms: _303  and  _304
REMARK  123  A    between atoms: _303  and  _306
REMARK  124  A    between atoms: _306  and  _307
REMARK  125  A    between atoms: _307  and  _308
REMARK  126  A    between atoms: _310  and  _312
REMARK  127  A    between atoms: _312  and  _313
REMARK  128  A    between atoms: _312  and  _315
REMARK  129  A    between atoms: _315  and  _316
REMARK  130  A    between atoms: _319  and  _321
REMARK  131  A    between atoms: _321  and  _322
REMARK  132  A    between atoms: _325  and  _327
REMARK  133  A    between atoms: _327  and  _328
REMARK  134  A    between atoms: _327  and  _330
REMARK  135  A    between atoms: _330  and  _331
REMARK  136  A    between atoms: _333  and  _335
REMARK  137  A    between atoms: _335  and  _336
REMARK  138  A    between atoms: _335  and  _338
REMARK  139  A    between atoms: _338  and  _339
REMARK  140  A    between atoms: _342  and  _344
REMARK  141  A    between atoms: _344  and  _345
REMARK  142  A    between atoms: _344  and  _347
REMARK  143  A    between atoms: _347  and  _348
REMARK  144  A    between atoms: _348  and  _349
REMARK  145  A    between atoms: _351  and  _353
REMARK  146  A    between atoms: _353  and  _354
REMARK  147  A    between atoms: _356  and  _358
REMARK  148  A    between atoms: _358  and  _359
REMARK  149  A    between atoms: _358  and  _361
REMARK  150  A    between atoms: _364  and  _366
REMARK  151  A    between atoms: _366  and  _367
REMARK  152  A    between atoms: _366  and  _369
REMARK  153  A    between atoms: _369  and  _370
REMARK  154  A    between atoms: _373  and  _375
REMARK  155  A    between atoms: _375  and  _376
REMARK  156  A    between atoms: _375  and  _378
REMARK  157  A    between atoms: _378  and  _379
REMARK  158  A    between atoms: _382  and  _384
REMARK  159  A    between atoms: _384  and  _385
REMARK  160  A    between atoms: _384  and  _387
REMARK  161  A    between atoms: _387  and  _388
REMARK  162  A    between atoms: _390  and  _392
REMARK  163  A    between atoms: _392  and  _393
REMARK  164  A    between atoms: _392  and  _395
REMARK  165  A    between atoms: _395  and  _396
REMARK  166  A    between atoms: _396  and  _397
REMARK  167  A    between atoms: _400  and  _402
REMARK  168  A    between atoms: _402  and  _403
REMARK  169  A    between atoms: _405  and  _407
REMARK  170  A    between atoms: _407  and  _408
REMARK  171  A    between atoms: _407  and  _410
REMARK  172  A    between atoms: _410  and  _411
REMARK  173  A    between atoms: _417  and  _419
REMARK  174  A    between atoms: _419  and  _420
REMARK  175  A    between atoms: _419  and  _422
REMARK  176  A    between atoms: _422  and  _423
REMARK  177  A    between atoms: _423  and  _424
REMARK  178  A    between atoms: _426  and  _428
REMARK  179  A    between atoms: _428  and  _429
REMARK  180  A    between atoms: _428  and  _431
REMARK  181  A    between atoms: _431  and  _432
REMARK  182  A    between atoms: _435  and  _437
REMARK  183  A    between atoms: _437  and  _438
REMARK  184  A    between atoms: _437  and  _440
REMARK  185  A    between atoms: _440  and  _441
REMARK  186  A    between atoms: _447  and  _449
REMARK  187  A    between atoms: _449  and  _450
REMARK  188  A    between atoms: _449  and  _452
REMARK  189  A    between atoms: _452  and  _453
REMARK  190  A    between atoms: _456  and  _458
REMARK  191  A    between atoms: _458  and  _459
REMARK  192  A    between atoms: _458  and  _461
REMARK  193  A    between atoms: _461  and  _462
REMARK  194  A    between atoms: _465  and  _467
REMARK  195  A    between atoms: _467  and  _468
REMARK  196  A    between atoms: _467  and  _470
REMARK  197  A    between atoms: _470  and  _471
REMARK  198  A    between atoms: _477  and  _479
REMARK  199  A    between atoms: _479  and  _480
REMARK  200  A    between atoms: _479  and  _482
REMARK  201  A    between atoms: _482  and  _483
REMARK  202  A    between atoms: _483  and  _484
REMARK  203  A    between atoms: _486  and  _488
REMARK  204  A    between atoms: _488  and  _489
REMARK  205  A    between atoms: _488  and  _491
REMARK  206  A    between atoms: _491  and  _492
REMARK  207  A    between atoms: _492  and  _493
REMARK  208  A    between atoms: _493  and  _494
REMARK  209  A    between atoms: _494  and  _495
REMARK  210  A    between atoms: _499  and  _501
REMARK  211  A    between atoms: _501  and  _502
REMARK  212  A    between atoms: _501  and  _504
REMARK  213  A    between atoms: _504  and  _505
REMARK  214  A    between atoms: _511  and  _513
REMARK  215  A    between atoms: _513  and  _514
REMARK  216  A    between atoms: _513  and  _516
REMARK  217  A    between atoms: _516  and  _517
REMARK  218  A    between atoms: _520  and  _522
REMARK  219  A    between atoms: _522  and  _523
REMARK  220  A    between atoms: _522  and  _525
REMARK  221  A    between atoms: _528  and  _530
REMARK  222  A    between atoms: _530  and  _531
REMARK  223  A    between atoms: _530  and  _533
REMARK  224  A    between atoms: _533  and  _534
REMARK  225  A    between atoms: _539  and  _541
REMARK  226  A    between atoms: _541  and  _542
REMARK  227  A    between atoms: _541  and  _544
REMARK  228  A    between atoms: _547  and  _549
REMARK  229  A    between atoms: _549  and  _550
REMARK  230  A    between atoms: _549  and  _552
REMARK  231  A    between atoms: _552  and  _553
REMARK  232  A    between atoms: _556  and  _558
REMARK  233  A    between atoms: _558  and  _559
REMARK  234  A    between atoms: _558  and  _561
REMARK  235  A    between atoms: _561  and  _562
REMARK  236  A    between atoms: _565  and  _567
REMARK  237  A    between atoms: _567  and  _568
REMARK  238  A    between atoms: _567  and  _570
REMARK  239  A    between atoms: _570  and  _571
REMARK  240  A    between atoms: _571  and  _572
REMARK  241  A    between atoms: _574  and  _576
REMARK  242  A    between atoms: _576  and  _577
REMARK  243  A    between atoms: _576  and  _579
REMARK  244  A    between atoms: _579  and  _580
REMARK  245  A    between atoms: _582  and  _584
REMARK  246  A    between atoms: _584  and  _585
REMARK  247  A    between atoms: _584  and  _587
REMARK  248  A    between atoms: _587  and  _588
REMARK  249  A    between atoms: _591  and  _593
REMARK  250  A    between atoms: _593  and  _594
REMARK  251  A    between atoms: _593  and  _596
REMARK  252  A    between atoms: _596  and  _597
REMARK  253  A    between atoms: _602  and  _604
REMARK  254  A    between atoms: _604  and  _605
REMARK  255  A    between atoms: _604  and  _607
REMARK  256  A    between atoms: _607  and  _608
REMARK  257  A    between atoms: _611  and  _613
REMARK  258  A    between atoms: _613  and  _614
REMARK  259  A    between atoms: _613  and  _616
REMARK  260  A    between atoms: _616  and  _617
REMARK  261  A    between atoms: _620  and  _622
REMARK  262  A    between atoms: _622  and  _623
REMARK  263  A    between atoms: _622  and  _625
REMARK  264  A    between atoms: _625  and  _626
REMARK  265  A    between atoms: _626  and  _627
REMARK  266  A    between atoms: _632  and  _634
REMARK  267  A    between atoms: _634  and  _635
REMARK  268  A    between atoms: _634  and  _637
REMARK  269  A    between atoms: _637  and  _638
REMARK  270  A    between atoms: _641  and  _643
REMARK  271  A    between atoms: _643  and  _644
REMARK  272  A    between atoms: _643  and  _646
REMARK  273  A    between atoms: _646  and  _647
REMARK  274  A    between atoms: _652  and  _653
REMARK                            x       y       z     vdW  Elec       q    Type
REMARK                         _______ _______ _______ _____ _____    ______ ____
ROOT
ATOM      1  CA  ILE A   4      13.228  18.292   5.959  0.00  0.00    +0.149 C 
ENDROOT
BRANCH   1   2
ATOM      2  C   ILE A   4      11.983  19.132   5.689  0.00  0.00    +0.241 C 
ATOM      3  N   SER A   5      11.692  20.037   6.614  0.00  0.00    -0.295 N 
ATOM      4  H   SER A   5      12.330  20.132   7.430  0.00  0.00    +0.150 HD
ATOM      5  O   ILE A   4      11.305  18.959   4.675  0.00  0.00    -0.273 OA
BRANCH   3   6
ATOM      6  CA  SER A   5      10.522  20.905   6.545  0.00  0.00    +0.178 C 
BRANCH   6   7
ATOM      7  C   SER A   5       9.281  20.186   6.020  0.00  0.00    +0.243 C 
ATOM      8  N   GLU A   6       8.693  19.360   6.883  0.00  0.00    -0.298 N 
ATOM      9  H   GLU A   6       9.114  19.247   7.827  0.00  0.00    +0.150 HD
ATOM     10  O   SER A   5       8.871  20.369   4.866  0.00  0.00    -0.273 OA
BRANCH   8  11
ATOM     11  CA  GLU A   6       7.481  18.604   6.563  0.00  0.00    +0.137 C 
BRANCH  11  12
ATOM     12  C   GLU A   6       7.539  17.711   5.317  0.00  0.00    +0.227 C 
ATOM     13  O   GLU A   6       6.497  17.292   4.804  0.00  0.00    -0.286 OA
ENDBRANCH  11  12
BRANCH  11  14
ATOM     14  CB  GLU A   6       6.296  19.567   6.435  0.00  0.00    +0.039 C 
BRANCH  14  15
ATOM     15  CG  GLU A   6       5.944  20.316   7.717  0.00  0.00    +0.116 C 
BRANCH  15  16
ATOM     16  CD  GLU A   6       4.921  21.428   7.485  0.00  0.00    +0.365 C 
ATOM     17  OE2 GLU A   6       3.733  21.226   7.823  0.00  0.00    -0.246 OA
ATOM     18  OE1 GLU A   6       5.304  22.497   6.957  0.00  0.00    -0.246 OA
ENDBRANCH  15  16
ENDBRANCH  14  15
ENDBRANCH  11  14
ENDBRANCH   8  11
ENDBRANCH   6   7
BRANCH   6  19
ATOM     19  CB  SER A   5      10.815  22.147   5.699  0.00  0.00    +0.166 C 
BRANCH  19  20
ATOM     20  OG  SER A   5      10.598  21.905   4.328  0.00  0.00    -0.380 OA
ATOM     21  H   SER A   5       9.653  21.645   4.185  0.00  0.00    +0.211 HD
ENDBRANCH  19  20
ENDBRANCH   6  19
ENDBRANCH   3   6
ENDBRANCH   1   2
BRANCH   1  24
ATOM     22  C   LEU A   3      13.586  15.904   5.582  0.00  0.00    +0.241 C 
ATOM     23  O   LEU A   3      13.906  15.703   6.755  0.00  0.00    -0.273 OA
ATOM     24  N   ILE A   4      13.254  17.105   5.108  0.00  0.00    -0.297 N 
ATOM     25  H   ILE A   4      13.006  17.200   4.102  0.00  0.00    +0.150 HD
BRANCH  22  26
ATOM     26  CA  LEU A   3      13.548  14.751   4.594  0.00  0.00    +0.149 C 
BRANCH  26  28
ATOM     27  C   VAL A   2      15.888  14.070   4.770  0.00  0.00    +0.241 C 
ATOM     28  N   LEU A   3      14.597  13.795   4.926  0.00  0.00    -0.297 N 
ATOM     29  H   LEU A   3      14.325  12.863   5.299  0.00  0.00    +0.150 HD
ATOM     30  O   VAL A   2      16.308  15.140   4.323  0.00  0.00    -0.273 OA
BRANCH  27  31
ATOM     31  CA  VAL A   2      16.846  12.969   5.197  0.00  0.00    +0.148 C 
BRANCH  31  33
ATOM     32  C   GLY A   1      18.439  11.624   3.956  0.00  0.00    +0.240 C 
ATOM     33  N   VAL A   2      17.991  12.821   4.327  0.00  0.00    -0.297 N 
ATOM     34  H   VAL A   2      18.478  13.673   3.982  0.00  0.00    +0.150 HD
ATOM     35  O   GLY A   1      17.894  10.558   4.266  0.00  0.00    -0.274 OA
BRANCH  32  36
ATOM     36  CA  GLY A   1      19.672  11.642   3.094  0.00  0.00    +0.169 C 
BRANCH  36  37
ATOM     37  N   GLY A   1      19.977  10.359   2.498  0.00  0.00    -0.236 NA
ATOM     38  H   GLY A   1      19.467   9.499   2.784  0.00  0.00    +0.142 HD
ENDBRANCH  36  37
ENDBRANCH  32  36
ENDBRANCH  31  33
BRANCH  31  39
ATOM     39  CB  VAL A   2      17.315  13.277   6.627  0.00  0.00    +0.027 C 
ATOM     40  CG2 VAL A   2      16.132  13.491   7.522  0.00  0.00    +0.002 C 
ATOM     41  CG1 VAL A   2      18.205  14.513   6.623  0.00  0.00    +0.002 C 
ENDBRANCH  31  39
ENDBRANCH  27  31
ENDBRANCH  26  28
BRANCH  26  42
ATOM     42  CB  LEU A   3      12.178  14.080   4.676  0.00  0.00    +0.029 C 
BRANCH  42  43
ATOM     43  CG  LEU A   3      11.844  13.096   3.551  0.00  0.00    +0.002 C 
ATOM     44  CD2 LEU A   3      10.497  12.462   3.796  0.00  0.00    +0.000 C 
ATOM     45  CD1 LEU A   3      11.840  13.835   2.240  0.00  0.00    +0.000 C 
ENDBRANCH  42  43
ENDBRANCH  26  42
ENDBRANCH  22  26
ENDBRANCH   1  24
BRANCH   1  46
ATOM     46  CB  ILE A   4      14.486  19.172   5.772  0.00  0.00    +0.027 C 
ATOM     47  CG2 ILE A   4      15.733  18.336   6.014  0.00  0.00    +0.002 C 
BRANCH  46  48
ATOM     48  CG1 ILE A   4      14.527  19.774   4.369  0.00  0.00    +0.002 C 
ATOM     49  CD1 ILE A   4      15.718  20.715   4.151  0.00  0.00    +0.000 C 
ENDBRANCH  46  48
ENDBRANCH   1  46
TORSDOF 22
REMARK  Name = ../refined-set-2016/2i4j/2i4j_pocket.pdb
REMARK  274 active torsions:
REMARK  status: ('A' for Active; 'I' for Inactive)
REMARK    1  A    between atoms: _1  and  _3
REMARK    2  A    between atoms: _3  and  _4
REMARK    3  A    between atoms: _3  and  _6
REMARK    4  A    between atoms: _6  and  _7
REMARK    5  A    between atoms: _12  and  _13
REMARK    6  A    between atoms: _15  and  _17
REMARK    7  A    between atoms: _17  and  _18
REMARK    8  A    between atoms: _17  and  _20
REMARK    9  A    between atoms: _20  and  _21
REMARK   10  A    between atoms: _23  and  _25
REMARK   11  A    between atoms: _25  and  _26
REMARK   12  A    between atoms: _25  and  _28
REMARK   13  A    between atoms: _28  and  _29
REMARK   14  A    between atoms: _36  and  _37
REMARK   15  A    between atoms: _42  and  _44
REMARK   16  A    between atoms: _44  and  _45
REMARK   17  A    between atoms: _44  and  _47
REMARK   18  A    between atoms: _47  and  _48
REMARK   19  A    between atoms: _51  and  _53
REMARK   20  A    between atoms: _53  and  _54
REMARK   21  A    between atoms: _53  and  _56
REMARK   22  A    between atoms: _56  and  _57
REMARK   23  A    between atoms: _60  and  _62
REMARK   24  A    between atoms: _62  and  _63
REMARK   25  A    between atoms: _62  and  _65
REMARK   26  A    between atoms: _65  and  _66
REMARK   27  A    between atoms: _72  and  _74
REMARK   28  A    between atoms: _74  and  _75
REMARK   29  A    between atoms: _74  and  _77
REMARK   30  A    between atoms: _77  and  _78
REMARK   31  A    between atoms: _78  and  _79
REMARK   32  A    between atoms: _84  and  _86
REMARK   33  A    between atoms: _86  and  _87
REMARK   34  A    between atoms: _89  and  _91
REMARK   35  A    between atoms: _91  and  _92
REMARK   36  A    between atoms: _91  and  _94
REMARK   37  A    between atoms: _96  and  _98
REMARK   38  A    between atoms: _98  and  _99
REMARK   39  A    between atoms: _98  and  _101
REMARK   40  A    between atoms: _101  and  _102
REMARK   41  A    between atoms: _102  and  _103
REMARK   42  A    between atoms: _108  and  _110
REMARK   43  A    between atoms: _110  and  _111
REMARK   44  A    between atoms: _110  and  _113
REMARK   45  A    between atoms: _113  and  _114
REMARK   46  A    between atoms: _120  and  _122
REMARK   47  A    between atoms: _122  and  _123
REMARK   48  A    between atoms: _122  and  _125
REMARK   49  A    between atoms: _125  and  _126
REMARK   50  A    between atoms: _126  and  _127
REMARK   51  A    between atoms: _127  and  _128
REMARK   52  A    between atoms: _137  and  _139
REMARK   53  A    between atoms: _139  and  _140
REMARK   54  A    between atoms: _139  and  _142
REMARK   55  A    between atoms: _142  and  _143
REMARK   56  A    between atoms: _145  and  _147
REMARK   57  A    between atoms: _147  and  _148
REMARK   58  A    between atoms: _147  and  _150
REMARK   59  A    between atoms: _153  and  _155
REMARK   60  A    between atoms: _155  and  _156
REMARK   61  A    between atoms: _155  and  _158
REMARK   62  A    between atoms: _158  and  _159
REMARK   63  A    between atoms: _159  and  _160
REMARK   64  A    between atoms: _163  and  _165
REMARK   65  A    between atoms: _165  and  _166
REMARK   66  A    between atoms: _169  and  _171
REMARK   67  A    between atoms: _171  and  _172
REMARK   68  A    between atoms: _171  and  _174
REMARK   69  A    between atoms: _177  and  _179
REMARK   70  A    between atoms: _179  and  _180
REMARK   71  A    between atoms: _179  and  _182
REMARK   72  A    between atoms: _182  and  _183
REMARK   73  A    between atoms: _183  and  _184
REMARK   74  A    between atoms: _189  and  _191
REMARK   75  A    between atoms: _191  and  _192
REMARK   76  A    between atoms: _191  and  _194
REMARK   77  A    between atoms: _194  and  _195
REMARK   78  A    between atoms: _195  and  _196
REMARK   79  A    between atoms: _199  and  _201
REMARK   80  A    between atoms: _201  and  _202
REMARK   81  A    between atoms: _201  and  _204
REMARK   82  A    between atoms: _204  and  _205
REMARK   83  A    between atoms: _208  and  _210
REMARK   84  A    between atoms: _210  and  _211
REMARK   85  A    between atoms: _210  and  _213
REMARK   86  A    between atoms: _213  and  _214
REMARK   87  A    between atoms: _217  and  _219
REMARK   88  A    between atoms: _219  and  _220
REMARK   89  A    between atoms: _219  and  _222
REMARK   90  A    between atoms: _222  and  _223
REMARK   91  A    between atoms: _228  and  _229
REMARK   92  A    between atoms: _231  and  _233
REMARK   93  A    between atoms: _233  and  _234
REMARK   94  A    between atoms: _233  and  _236
REMARK   95  A    between atoms: _239  and  _241
REMARK   96  A    between atoms: _241  and  _242
REMARK   97  A    between atoms: _241  and  _244
REMARK   98  A    between atoms: _244  and  _245
REMARK   99  A    between atoms: _250  and  _252
REMARK  100  A    between atoms: _252  and  _253
REMARK  101  A    between atoms: _252  and  _255
REMARK  102  A    between atoms: _255  and  _256
REMARK  103  A    between atoms: _256  and  _257
REMARK  104  A    between atoms: _260  and  _262
REMARK  105  A    between atoms: _262  and  _263
REMARK  106  A    between atoms: _262  and  _265
REMARK  107  A    between atoms: _265  and  _266
REMARK  108  A    between atoms: _269  and  _271
REMARK  109  A    between atoms: _271  and  _272
REMARK  110  A    between atoms: _271  and  _274
REMARK  111  A    between atoms: _274  and  _275
REMARK  112  A    between atoms: _278  and  _280
REMARK  113  A    between atoms: _280  and  _281
REMARK  114  A    between atoms: _280  and  _283
REMARK  115  A    between atoms: _283  and  _284
REMARK  116  A    between atoms: _289  and  _290
REMARK  117  A    between atoms: _292  and  _294
REMARK  118  A    between atoms: _294  and  _295
REMARK  119  A    between atoms: _294  and  _297
REMARK  120  A    between atoms: _297  and  _298
REMARK  121  A    between atoms: _301  and  _303
REMARK  122  A    between atoms: _303  and  _304
REMARK  123  A    between atoms: _303  and  _306
REMARK  124  A    between atoms: _306  and  _307
REMARK  125  A    between atoms: _307  and  _308
REMARK  126  A    between atoms: _310  and  _312
REMARK  127  A    between atoms: _312  and  _313
REMARK  128  A    between atoms: _312  and  _315
REMARK  129  A    between atoms: _315  and  _316
REMARK  130  A    between atoms: _319  and  _321
REMARK  131  A    between atoms: _321  and  _322
REMARK  132  A    between atoms: _325  and  _327
REMARK  133  A    between atoms: _327  and  _328
REMARK  134  A    between atoms: _327  and  _330
REMARK  135  A    between atoms: _330  and  _331
REMARK  136  A    between atoms: _333  and  _335
REMARK  137  A    between atoms: _335  and  _336
REMARK  138  A    between atoms: _335  and  _338
REMARK  139  A    between atoms: _338  and  _339
REMARK  140  A    between atoms: _342  and  _344
REMARK  141  A    between atoms: _344  and  _345
REMARK  142  A    between atoms: _344  and  _347
REMARK  143  A    between atoms: _347  and  _348
REMARK  144  A    between atoms: _348  and  _349
REMARK  145  A    between atoms: _351  and  _353
REMARK  146  A    between atoms: _353  and  _354
REMARK  147  A    between atoms: _356  and  _358
REMARK  148  A    between atoms: _358  and  _359
REMARK  149  A    between atoms: _358  and  _361
REMARK  150  A    between atoms: _364  and  _366
REMARK  151  A    between atoms: _366  and  _367
REMARK  152  A    between atoms: _366  and  _369
REMARK  153  A    between atoms: _369  and  _370
REMARK  154  A    between atoms: _373  and  _375
REMARK  155  A    between atoms: _375  and  _376
REMARK  156  A    between atoms: _375  and  _378
REMARK  157  A    between atoms: _378  and  _379
REMARK  158  A    between atoms: _382  and  _384
REMARK  159  A    between atoms: _384  and  _385
REMARK  160  A    between atoms: _384  and  _387
REMARK  161  A    between atoms: _387  and  _388
REMARK  162  A    between atoms: _390  and  _392
REMARK  163  A    between atoms: _392  and  _393
REMARK  164  A    between atoms: _392  and  _395
REMARK  165  A    between atoms: _395  and  _396
REMARK  166  A    between atoms: _396  and  _397
REMARK  167  A    between atoms: _400  and  _402
REMARK  168  A    between atoms: _402  and  _403
REMARK  169  A    between atoms: _405  and  _407
REMARK  170  A    between atoms: _407  and  _408
REMARK  171  A    between atoms: _407  and  _410
REMARK  172  A    between atoms: _410  and  _411
REMARK  173  A    between atoms: _417  and  _419
REMARK  174  A    between atoms: _419  and  _420
REMARK  175  A    between atoms: _419  and  _422
REMARK  176  A    between atoms: _422  and  _423
REMARK  177  A    between atoms: _423  and  _424
REMARK  178  A    between atoms: _426  and  _428
REMARK  179  A    between atoms: _428  and  _429
REMARK  180  A    between atoms: _428  and  _431
REMARK  181  A    between atoms: _431  and  _432
REMARK  182  A    between atoms: _435  and  _437
REMARK  183  A    between atoms: _437  and  _438
REMARK  184  A    between atoms: _437  and  _440
REMARK  185  A    between atoms: _440  and  _441
REMARK  186  A    between atoms: _447  and  _449
REMARK  187  A    between atoms: _449  and  _450
REMARK  188  A    between atoms: _449  and  _452
REMARK  189  A    between atoms: _452  and  _453
REMARK  190  A    between atoms: _456  and  _458
REMARK  191  A    between atoms: _458  and  _459
REMARK  192  A    between atoms: _458  and  _461
REMARK  193  A    between atoms: _461  and  _462
REMARK  194  A    between atoms: _465  and  _467
REMARK  195  A    between atoms: _467  and  _468
REMARK  196  A    between atoms: _467  and  _470
REMARK  197  A    between atoms: _470  and  _471
REMARK  198  A    between atoms: _477  and  _479
REMARK  199  A    between atoms: _479  and  _480
REMARK  200  A    between atoms: _479  and  _482
REMARK  201  A    between atoms: _482  and  _483
REMARK  202  A    between atoms: _483  and  _484
REMARK  203  A    between atoms: _486  and  _488
REMARK  204  A    between atoms: _488  and  _489
REMARK  205  A    between atoms: _488  and  _491
REMARK  206  A    between atoms: _491  and  _492
REMARK  207  A    between atoms: _492  and  _493
REMARK  208  A    between atoms: _493  and  _494
REMARK  209  A    between atoms: _494  and  _495
REMARK  210  A    between atoms: _499  and  _501
REMARK  211  A    between atoms: _501  and  _502
REMARK  212  A    between atoms: _501  and  _504
REMARK  213  A    between atoms: _504  and  _505
REMARK  214  A    between atoms: _511  and  _513
REMARK  215  A    between atoms: _513  and  _514
REMARK  216  A    between atoms: _513  and  _516
REMARK  217  A    between atoms: _516  and  _517
REMARK  218  A    between atoms: _520  and  _522
REMARK  219  A    between atoms: _522  and  _523
REMARK  220  A    between atoms: _522  and  _525
REMARK  221  A    between atoms: _528  and  _530
REMARK  222  A    between atoms: _530  and  _531
REMARK  223  A    between atoms: _530  and  _533
REMARK  224  A    between atoms: _533  and  _534
REMARK  225  A    between atoms: _539  and  _541
REMARK  226  A    between atoms: _541  and  _542
REMARK  227  A    between atoms: _541  and  _544
REMARK  228  A    between atoms: _547  and  _549
REMARK  229  A    between atoms: _549  and  _550
REMARK  230  A    between atoms: _549  and  _552
REMARK  231  A    between atoms: _552  and  _553
REMARK  232  A    between atoms: _556  and  _558
REMARK  233  A    between atoms: _558  and  _559
REMARK  234  A    between atoms: _558  and  _561
REMARK  235  A    between atoms: _561  and  _562
REMARK  236  A    between atoms: _565  and  _567
REMARK  237  A    between atoms: _567  and  _568
REMARK  238  A    between atoms: _567  and  _570
REMARK  239  A    between atoms: _570  and  _571
REMARK  240  A    between atoms: _571  and  _572
REMARK  241  A    between atoms: _574  and  _576
REMARK  242  A    between atoms: _576  and  _577
REMARK  243  A    between atoms: _576  and  _579
REMARK  244  A    between atoms: _579  and  _580
REMARK  245  A    between atoms: _582  and  _584
REMARK  246  A    between atoms: _584  and  _585
REMARK  247  A    between atoms: _584  and  _587
REMARK  248  A    between atoms: _587  and  _588
REMARK  249  A    between atoms: _591  and  _593
REMARK  250  A    between atoms: _593  and  _594
REMARK  251  A    between atoms: _593  and  _596
REMARK  252  A    between atoms: _596  and  _597
REMARK  253  A    between atoms: _602  and  _604
REMARK  254  A    between atoms: _604  and  _605
REMARK  255  A    between atoms: _604  and  _607
REMARK  256  A    between atoms: _607  and  _608
REMARK  257  A    between atoms: _611  and  _613
REMARK  258  A    between atoms: _613  and  _614
REMARK  259  A    between atoms: _613  and  _616
REMARK  260  A    between atoms: _616  and  _617
REMARK  261  A    between atoms: _620  and  _622
REMARK  262  A    between atoms: _622  and  _623
REMARK  263  A    between atoms: _622  and  _625
REMARK  264  A    between atoms: _625  and  _626
REMARK  265  A    between atoms: _626  and  _627
REMARK  266  A    between atoms: _632  and  _634
REMARK  267  A    between atoms: _634  and  _635
REMARK  268  A    between atoms: _634  and  _637
REMARK  269  A    between atoms: _637  and  _638
REMARK  270  A    between atoms: _641  and  _643
REMARK  271  A    between atoms: _643  and  _644
REMARK  272  A    between atoms: _643  and  _646
REMARK  273  A    between atoms: _646  and  _647
REMARK  274  A    between atoms: _652  and  _653
REMARK                            x       y       z     vdW  Elec       q    Type
REMARK                         _______ _______ _______ _____ _____    ______ ____
ROOT
ATOM      1  C   PHE A   2      16.992  16.883   1.271  0.00  0.00    +0.241 C 
ATOM      2  N   MET A   3      17.623  16.846   2.436  0.00  0.00    -0.297 N 
ATOM      3  H   MET A   3      17.103  16.550   3.287  0.00  0.00    +0.150 HD
ATOM      4  O   PHE A   2      17.525  17.252   0.228  0.00  0.00    -0.273 OA
ENDROOT
BRANCH   1   5
ATOM      5  CA  PHE A   2      15.539  16.471   1.286  0.00  0.00    +0.153 C 
BRANCH   5   8
ATOM      6  C   GLY A   1      13.587  17.888   1.542  0.00  0.00    +0.240 C 
ATOM      7  O   GLY A   1      13.016  17.061   2.259  0.00  0.00    -0.274 OA
ATOM      8  N   PHE A   2      14.786  17.684   1.014  0.00  0.00    -0.297 N 
ATOM      9  H   PHE A   2      15.197  18.408   0.391  0.00  0.00    +0.150 HD
BRANCH   6  10
ATOM     10  CA  GLY A   1      12.940  19.209   1.197  0.00  0.00    +0.169 C 
BRANCH  10  11
ATOM     11  N   GLY A   1      11.547  19.200   1.575  0.00  0.00    -0.236 NA
ATOM     12  H   GLY A   1      11.272  18.979   2.553  0.00  0.00    +0.142 HD
ENDBRANCH  10  11
ENDBRANCH   6  10
ENDBRANCH   5   8
BRANCH   5  13
ATOM     13  CB  PHE A   2      15.289  15.427   0.203  0.00  0.00    +0.055 C 
BRANCH  13  14
ATOM     14  CG  PHE A   2      16.032  14.130   0.415  0.00  0.00    -0.020 A 
ATOM     15  CD2 PHE A   2      15.555  13.172   1.305  0.00  0.00    -0.004 A 
ATOM     16  CE2 PHE A   2      16.208  11.948   1.459  0.00  0.00    -0.000 A 
ATOM     17  CZ  PHE A   2      17.356  11.673   0.718  0.00  0.00    -0.000 A 
ATOM     18  CE1 PHE A   2      17.846  12.626  -0.172  0.00  0.00    -0.000 A 
ATOM     19  CD1 PHE A   2      17.182  13.847  -0.317  0.00  0.00    -0.004 A 
ENDBRANCH  13  14
ENDBRANCH   5  13
ENDBRANCH   1   5
BRANCH   2  20
ATOM     20  CA  MET A   3      19.030  17.211   2.551  0.00  0.00    +0.149 C 
BRANCH  20  21
ATOM     21  C   MET A   3      19.886  15.949   2.481  0.00  0.00    +0.241 C 
ATOM     22  O   MET A   3      19.667  14.983   3.217  0.00  0.00    -0.273 OA
ATOM     23  N   THR A   4      20.871  15.980   1.594  0.00  0.00    -0.296 N 
ATOM     24  H   THR A   4      21.018  16.847   1.039  0.00  0.00    +0.150 HD
BRANCH  23  25
ATOM     25  CA  THR A   4      21.750  14.851   1.370  0.00  0.00    +0.164 C 
BRANCH  25  26
ATOM     26  C   THR A   4      22.673  14.512   2.542  0.00  0.00    +0.229 C 
ATOM     27  O   THR A   4      23.158  15.395   3.242  0.00  0.00    -0.286 OA
ENDBRANCH  25  26
BRANCH  25  28
ATOM     28  CB  THR A   4      22.579  15.096   0.093  0.00  0.00    +0.136 C 
ATOM     29  CG2 THR A   4      23.539  13.976  -0.134  0.00  0.00    +0.034 C 
BRANCH  28  30
ATOM     30  OG1 THR A   4      21.693  15.185  -1.039  0.00  0.00    -0.382 OA
ATOM     31  HG1 THR A   4      21.061  15.935  -0.904  0.00  0.00    +0.210 HD
ENDBRANCH  28  30
ENDBRANCH  25  28
ENDBRANCH  23  25
ENDBRANCH  20  21
BRANCH  20  32
ATOM     32  CB  MET A   3      19.281  17.944   3.867  0.00  0.00    +0.041 C 
BRANCH  32  33
ATOM     33  CG  MET A   3      20.679  18.528   3.987  0.00  0.00    +0.060 C 
BRANCH  33  34
ATOM     34  SD  MET A   3      20.753  19.657   5.379  0.00  0.00    -0.139 S 
ATOM     35  CE  MET A   3      19.938  21.067   4.666  0.00  0.00    +0.069 C 
ENDBRANCH  33  34
ENDBRANCH  32  33
ENDBRANCH  20  32
ENDBRANCH   2  20
TORSDOF 15
REMARK  Name = ../refined-set-2016/2i4j/2i4j_pocket.pdb
REMARK  274 active torsions:
REMARK  status: ('A' for Active; 'I' for Inactive)
REMARK    1  A    between atoms: _1  and  _3
REMARK    2  A    between atoms: _3  and  _4
REMARK    3  A    between atoms: _3  and  _6
REMARK    4  A    between atoms: _6  and  _7
REMARK    5  A    between atoms: _12  and  _13
REMARK    6  A    between atoms: _15  and  _17
REMARK    7  A    between atoms: _17  and  _18
REMARK    8  A    between atoms: _17  and  _20
REMARK    9  A    between atoms: _20  and  _21
REMARK   10  A    between atoms: _23  and  _25
REMARK   11  A    between atoms: _25  and  _26
REMARK   12  A    between atoms: _25  and  _28
REMARK   13  A    between atoms: _28  and  _29
REMARK   14  A    between atoms: _36  and  _37
REMARK   15  A    between atoms: _42  and  _44
REMARK   16  A    between atoms: _44  and  _45
REMARK   17  A    between atoms: _44  and  _47
REMARK   18  A    between atoms: _47  and  _48
REMARK   19  A    between atoms: _51  and  _53
REMARK   20  A    between atoms: _53  and  _54
REMARK   21  A    between atoms: _53  and  _56
REMARK   22  A    between atoms: _56  and  _57
REMARK   23  A    between atoms: _60  and  _62
REMARK   24  A    between atoms: _62  and  _63
REMARK   25  A    between atoms: _62  and  _65
REMARK   26  A    between atoms: _65  and  _66
REMARK   27  A    between atoms: _72  and  _74
REMARK   28  A    between atoms: _74  and  _75
REMARK   29  A    between atoms: _74  and  _77
REMARK   30  A    between atoms: _77  and  _78
REMARK   31  A    between atoms: _78  and  _79
REMARK   32  A    between atoms: _84  and  _86
REMARK   33  A    between atoms: _86  and  _87
REMARK   34  A    between atoms: _89  and  _91
REMARK   35  A    between atoms: _91  and  _92
REMARK   36  A    between atoms: _91  and  _94
REMARK   37  A    between atoms: _96  and  _98
REMARK   38  A    between atoms: _98  and  _99
REMARK   39  A    between atoms: _98  and  _101
REMARK   40  A    between atoms: _101  and  _102
REMARK   41  A    between atoms: _102  and  _103
REMARK   42  A    between atoms: _108  and  _110
REMARK   43  A    between atoms: _110  and  _111
REMARK   44  A    between atoms: _110  and  _113
REMARK   45  A    between atoms: _113  and  _114
REMARK   46  A    between atoms: _120  and  _122
REMARK   47  A    between atoms: _122  and  _123
REMARK   48  A    between atoms: _122  and  _125
REMARK   49  A    between atoms: _125  and  _126
REMARK   50  A    between atoms: _126  and  _127
REMARK   51  A    between atoms: _127  and  _128
REMARK   52  A    between atoms: _137  and  _139
REMARK   53  A    between atoms: _139  and  _140
REMARK   54  A    between atoms: _139  and  _142
REMARK   55  A    between atoms: _142  and  _143
REMARK   56  A    between atoms: _145  and  _147
REMARK   57  A    between atoms: _147  and  _148
REMARK   58  A    between atoms: _147  and  _150
REMARK   59  A    between atoms: _153  and  _155
REMARK   60  A    between atoms: _155  and  _156
REMARK   61  A    between atoms: _155  and  _158
REMARK   62  A    between atoms: _158  and  _159
REMARK   63  A    between atoms: _159  and  _160
REMARK   64  A    between atoms: _163  and  _165
REMARK   65  A    between atoms: _165  and  _166
REMARK   66  A    between atoms: _169  and  _171
REMARK   67  A    between atoms: _171  and  _172
REMARK   68  A    between atoms: _171  and  _174
REMARK   69  A    between atoms: _177  and  _179
REMARK   70  A    between atoms: _179  and  _180
REMARK   71  A    between atoms: _179  and  _182
REMARK   72  A    between atoms: _182  and  _183
REMARK   73  A    between atoms: _183  and  _184
REMARK   74  A    between atoms: _189  and  _191
REMARK   75  A    between atoms: _191  and  _192
REMARK   76  A    between atoms: _191  and  _194
REMARK   77  A    between atoms: _194  and  _195
REMARK   78  A    between atoms: _195  and  _196
REMARK   79  A    between atoms: _199  and  _201
REMARK   80  A    between atoms: _201  and  _202
REMARK   81  A    between atoms: _201  and  _204
REMARK   82  A    between atoms: _204  and  _205
REMARK   83  A    between atoms: _208  and  _210
REMARK   84  A    between atoms: _210  and  _211
REMARK   85  A    between atoms: _210  and  _213
REMARK   86  A    between atoms: _213  and  _214
REMARK   87  A    between atoms: _217  and  _219
REMARK   88  A    between atoms: _219  and  _220
REMARK   89  A    between atoms: _219  and  _222
REMARK   90  A    between atoms: _222  and  _223
REMARK   91  A    between atoms: _228  and  _229
REMARK   92  A    between atoms: _231  and  _233
REMARK   93  A    between atoms: _233  and  _234
REMARK   94  A    between atoms: _233  and  _236
REMARK   95  A    between atoms: _239  and  _241
REMARK   96  A    between atoms: _241  and  _242
REMARK   97  A    between atoms: _241  and  _244
REMARK   98  A    between atoms: _244  and  _245
REMARK   99  A    between atoms: _250  and  _252
REMARK  100  A    between atoms: _252  and  _253
REMARK  101  A    between atoms: _252  and  _255
REMARK  102  A    between atoms: _255  and  _256
REMARK  103  A    between atoms: _256  and  _257
REMARK  104  A    between atoms: _260  and  _262
REMARK  105  A    between atoms: _262  and  _263
REMARK  106  A    between atoms: _262  and  _265
REMARK  107  A    between atoms: _265  and  _266
REMARK  108  A    between atoms: _269  and  _271
REMARK  109  A    between atoms: _271  and  _272
REMARK  110  A    between atoms: _271  and  _274
REMARK  111  A    between atoms: _274  and  _275
REMARK  112  A    between atoms: _278  and  _280
REMARK  113  A    between atoms: _280  and  _281
REMARK  114  A    between atoms: _280  and  _283
REMARK  115  A    between atoms: _283  and  _284
REMARK  116  A    between atoms: _289  and  _290
REMARK  117  A    between atoms: _292  and  _294
REMARK  118  A    between atoms: _294  and  _295
REMARK  119  A    between atoms: _294  and  _297
REMARK  120  A    between atoms: _297  and  _298
REMARK  121  A    between atoms: _301  and  _303
REMARK  122  A    between atoms: _303  and  _304
REMARK  123  A    between atoms: _303  and  _306
REMARK  124  A    between atoms: _306  and  _307
REMARK  125  A    between atoms: _307  and  _308
REMARK  126  A    between atoms: _310  and  _312
REMARK  127  A    between atoms: _312  and  _313
REMARK  128  A    between atoms: _312  and  _315
REMARK  129  A    between atoms: _315  and  _316
REMARK  130  A    between atoms: _319  and  _321
REMARK  131  A    between atoms: _321  and  _322
REMARK  132  A    between atoms: _325  and  _327
REMARK  133  A    between atoms: _327  and  _328
REMARK  134  A    between atoms: _327  and  _330
REMARK  135  A    between atoms: _330  and  _331
REMARK  136  A    between atoms: _333  and  _335
REMARK  137  A    between atoms: _335  and  _336
REMARK  138  A    between atoms: _335  and  _338
REMARK  139  A    between atoms: _338  and  _339
REMARK  140  A    between atoms: _342  and  _344
REMARK  141  A    between atoms: _344  and  _345
REMARK  142  A    between atoms: _344  and  _347
REMARK  143  A    between atoms: _347  and  _348
REMARK  144  A    between atoms: _348  and  _349
REMARK  145  A    between atoms: _351  and  _353
REMARK  146  A    between atoms: _353  and  _354
REMARK  147  A    between atoms: _356  and  _358
REMARK  148  A    between atoms: _358  and  _359
REMARK  149  A    between atoms: _358  and  _361
REMARK  150  A    between atoms: _364  and  _366
REMARK  151  A    between atoms: _366  and  _367
REMARK  152  A    between atoms: _366  and  _369
REMARK  153  A    between atoms: _369  and  _370
REMARK  154  A    between atoms: _373  and  _375
REMARK  155  A    between atoms: _375  and  _376
REMARK  156  A    between atoms: _375  and  _378
REMARK  157  A    between atoms: _378  and  _379
REMARK  158  A    between atoms: _382  and  _384
REMARK  159  A    between atoms: _384  and  _385
REMARK  160  A    between atoms: _384  and  _387
REMARK  161  A    between atoms: _387  and  _388
REMARK  162  A    between atoms: _390  and  _392
REMARK  163  A    between atoms: _392  and  _393
REMARK  164  A    between atoms: _392  and  _395
REMARK  165  A    between atoms: _395  and  _396
REMARK  166  A    between atoms: _396  and  _397
REMARK  167  A    between atoms: _400  and  _402
REMARK  168  A    between atoms: _402  and  _403
REMARK  169  A    between atoms: _405  and  _407
REMARK  170  A    between atoms: _407  and  _408
REMARK  171  A    between atoms: _407  and  _410
REMARK  172  A    between atoms: _410  and  _411
REMARK  173  A    between atoms: _417  and  _419
REMARK  174  A    between atoms: _419  and  _420
REMARK  175  A    between atoms: _419  and  _422
REMARK  176  A    between atoms: _422  and  _423
REMARK  177  A    between atoms: _423  and  _424
REMARK  178  A    between atoms: _426  and  _428
REMARK  179  A    between atoms: _428  and  _429
REMARK  180  A    between atoms: _428  and  _431
REMARK  181  A    between atoms: _431  and  _432
REMARK  182  A    between atoms: _435  and  _437
REMARK  183  A    between atoms: _437  and  _438
REMARK  184  A    between atoms: _437  and  _440
REMARK  185  A    between atoms: _440  and  _441
REMARK  186  A    between atoms: _447  and  _449
REMARK  187  A    between atoms: _449  and  _450
REMARK  188  A    between atoms: _449  and  _452
REMARK  189  A    between atoms: _452  and  _453
REMARK  190  A    between atoms: _456  and  _458
REMARK  191  A    between atoms: _458  and  _459
REMARK  192  A    between atoms: _458  and  _461
REMARK  193  A    between atoms: _461  and  _462
REMARK  194  A    between atoms: _465  and  _467
REMARK  195  A    between atoms: _467  and  _468
REMARK  196  A    between atoms: _467  and  _470
REMARK  197  A    between atoms: _470  and  _471
REMARK  198  A    between atoms: _477  and  _479
REMARK  199  A    between atoms: _479  and  _480
REMARK  200  A    between atoms: _479  and  _482
REMARK  201  A    between atoms: _482  and  _483
REMARK  202  A    between atoms: _483  and  _484
REMARK  203  A    between atoms: _486  and  _488
REMARK  204  A    between atoms: _488  and  _489
REMARK  205  A    between atoms: _488  and  _491
REMARK  206  A    between atoms: _491  and  _492
REMARK  207  A    between atoms: _492  and  _493
REMARK  208  A    between atoms: _493  and  _494
REMARK  209  A    between atoms: _494  and  _495
REMARK  210  A    between atoms: _499  and  _501
REMARK  211  A    between atoms: _501  and  _502
REMARK  212  A    between atoms: _501  and  _504
REMARK  213  A    between atoms: _504  and  _505
REMARK  214  A    between atoms: _511  and  _513
REMARK  215  A    between atoms: _513  and  _514
REMARK  216  A    between atoms: _513  and  _516
REMARK  217  A    between atoms: _516  and  _517
REMARK  218  A    between atoms: _520  and  _522
REMARK  219  A    between atoms: _522  and  _523
REMARK  220  A    between atoms: _522  and  _525
REMARK  221  A    between atoms: _528  and  _530
REMARK  222  A    between atoms: _530  and  _531
REMARK  223  A    between atoms: _530  and  _533
REMARK  224  A    between atoms: _533  and  _534
REMARK  225  A    between atoms: _539  and  _541
REMARK  226  A    between atoms: _541  and  _542
REMARK  227  A    between atoms: _541  and  _544
REMARK  228  A    between atoms: _547  and  _549
REMARK  229  A    between atoms: _549  and  _550
REMARK  230  A    between atoms: _549  and  _552
REMARK  231  A    between atoms: _552  and  _553
REMARK  232  A    between atoms: _556  and  _558
REMARK  233  A    between atoms: _558  and  _559
REMARK  234  A    between atoms: _558  and  _561
REMARK  235  A    between atoms: _561  and  _562
REMARK  236  A    between atoms: _565  and  _567
REMARK  237  A    between atoms: _567  and  _568
REMARK  238  A    between atoms: _567  and  _570
REMARK  239  A    between atoms: _570  and  _571
REMARK  240  A    between atoms: _571  and  _572
REMARK  241  A    between atoms: _574  and  _576
REMARK  242  A    between atoms: _576  and  _577
REMARK  243  A    between atoms: _576  and  _579
REMARK  244  A    between atoms: _579  and  _580
REMARK  245  A    between atoms: _582  and  _584
REMARK  246  A    between atoms: _584  and  _585
REMARK  247  A    between atoms: _584  and  _587
REMARK  248  A    between atoms: _587  and  _588
REMARK  249  A    between atoms: _591  and  _593
REMARK  250  A    between atoms: _593  and  _594
REMARK  251  A    between atoms: _593  and  _596
REMARK  252  A    between atoms: _596  and  _597
REMARK  253  A    between atoms: _602  and  _604
REMARK  254  A    between atoms: _604  and  _605
REMARK  255  A    between atoms: _604  and  _607
REMARK  256  A    between atoms: _607  and  _608
REMARK  257  A    between atoms: _611  and  _613
REMARK  258  A    between atoms: _613  and  _614
REMARK  259  A    between atoms: _613  and  _616
REMARK  260  A    between atoms: _616  and  _617
REMARK  261  A    between atoms: _620  and  _622
REMARK  262  A    between atoms: _622  and  _623
REMARK  263  A    between atoms: _622  and  _625
REMARK  264  A    between atoms: _625  and  _626
REMARK  265  A    between atoms: _626  and  _627
REMARK  266  A    between atoms: _632  and  _634
REMARK  267  A    between atoms: _634  and  _635
REMARK  268  A    between atoms: _634  and  _637
REMARK  269  A    between atoms: _637  and  _638
REMARK  270  A    between atoms: _641  and  _643
REMARK  271  A    between atoms: _643  and  _644
REMARK  272  A    between atoms: _643  and  _646
REMARK  273  A    between atoms: _646  and  _647
REMARK  274  A    between atoms: _652  and  _653
REMARK                            x       y       z     vdW  Elec       q    Type
REMARK                         _______ _______ _______ _____ _____    ______ ____
ROOT
ATOM      1  C   PHE A   1      26.312  17.706   3.712  0.00  0.00    +0.239 C 
ATOM      2  N   LEU A   2      25.601  16.923   4.520  0.00  0.00    -0.298 N 
ATOM      3  H   LEU A   2      24.982  16.201   4.099  0.00  0.00    +0.150 HD
ATOM      4  O   PHE A   1      27.070  18.579   4.120  0.00  0.00    -0.274 OA
ENDROOT
BRANCH   1   5
ATOM      5  CA  PHE A   1      26.140  17.457   2.216  0.00  0.00    +0.149 C 
BRANCH   5   6
ATOM      6  N   PHE A   1      26.068  16.024   1.969  0.00  0.00    -0.238 NA
ATOM      7  H   PHE A   1      25.206  15.611   1.560  0.00  0.00    +0.142 HD
ENDBRANCH   5   6
BRANCH   5   8
ATOM      8  CB  PHE A   1      24.880  18.166   1.720  0.00  0.00    +0.053 C 
BRANCH   8   9
ATOM      9  CG  PHE A   1      24.839  19.634   2.065  0.00  0.00    -0.020 A 
ATOM     10  CD2 PHE A   1      23.824  20.147   2.857  0.00  0.00    -0.004 A 
ATOM     11  CE2 PHE A   1      23.791  21.501   3.198  0.00  0.00    -0.000 A 
ATOM     12  CZ  PHE A   1      24.783  22.347   2.741  0.00  0.00    -0.000 A 
ATOM     13  CE1 PHE A   1      25.801  21.847   1.947  0.00  0.00    -0.000 A 
ATOM     14  CD1 PHE A   1      25.826  20.497   1.612  0.00  0.00    -0.004 A 
ENDBRANCH   8   9
ENDBRANCH   5   8
ENDBRANCH   1   5
BRANCH   2  15
ATOM     15  CA  LEU A   2      25.657  17.038   5.970  0.00  0.00    +0.137 C 
BRANCH  15  16
ATOM     16  C   LEU A   2      26.992  16.595   6.541  0.00  0.00    +0.227 C 
ATOM     17  O   LEU A   2      27.495  17.189   7.496  0.00  0.00    -0.286 OA
ENDBRANCH  15  16
BRANCH  15  18
ATOM     18  CB  LEU A   2      24.548  16.202   6.608  0.00  0.00    +0.028 C 
BRANCH  18  19
ATOM     19  CG  LEU A   2      23.144  16.794   6.528  0.00  0.00    +0.002 C 
ATOM     20  CD2 LEU A   2      23.048  17.984   7.478  0.00  0.00    +0.000 C 
ATOM     21  CD1 LEU A   2      22.112  15.732   6.869  0.00  0.00    +0.000 C 
ENDBRANCH  18  19
ENDBRANCH  15  18
ENDBRANCH   2  15
TORSDOF 8
REMARK  Name = ../refined-set-2016/2i4j/2i4j_pocket.pdb
REMARK  274 active torsions:
REMARK  status: ('A' for Active; 'I' for Inactive)
REMARK    1  A    between atoms: _1  and  _3
REMARK    2  A    between atoms: _3  and  _4
REMARK    3  A    between atoms: _3  and  _6
REMARK    4  A    between atoms: _6  and  _7
REMARK    5  A    between atoms: _12  and  _13
REMARK    6  A    between atoms: _15  and  _17
REMARK    7  A    between atoms: _17  and  _18
REMARK    8  A    between atoms: _17  and  _20
REMARK    9  A    between atoms: _20  and  _21
REMARK   10  A    between atoms: _23  and  _25
REMARK   11  A    between atoms: _25  and  _26
REMARK   12  A    between atoms: _25  and  _28
REMARK   13  A    between atoms: _28  and  _29
REMARK   14  A    between atoms: _36  and  _37
REMARK   15  A    between atoms: _42  and  _44
REMARK   16  A    between atoms: _44  and  _45
REMARK   17  A    between atoms: _44  and  _47
REMARK   18  A    between atoms: _47  and  _48
REMARK   19  A    between atoms: _51  and  _53
REMARK   20  A    between atoms: _53  and  _54
REMARK   21  A    between atoms: _53  and  _56
REMARK   22  A    between atoms: _56  and  _57
REMARK   23  A    between atoms: _60  and  _62
REMARK   24  A    between atoms: _62  and  _63
REMARK   25  A    between atoms: _62  and  _65
REMARK   26  A    between atoms: _65  and  _66
REMARK   27  A    between atoms: _72  and  _74
REMARK   28  A    between atoms: _74  and  _75
REMARK   29  A    between atoms: _74  and  _77
REMARK   30  A    between atoms: _77  and  _78
REMARK   31  A    between atoms: _78  and  _79
REMARK   32  A    between atoms: _84  and  _86
REMARK   33  A    between atoms: _86  and  _87
REMARK   34  A    between atoms: _89  and  _91
REMARK   35  A    between atoms: _91  and  _92
REMARK   36  A    between atoms: _91  and  _94
REMARK   37  A    between atoms: _96  and  _98
REMARK   38  A    between atoms: _98  and  _99
REMARK   39  A    between atoms: _98  and  _101
REMARK   40  A    between atoms: _101  and  _102
REMARK   41  A    between atoms: _102  and  _103
REMARK   42  A    between atoms: _108  and  _110
REMARK   43  A    between atoms: _110  and  _111
REMARK   44  A    between atoms: _110  and  _113
REMARK   45  A    between atoms: _113  and  _114
REMARK   46  A    between atoms: _120  and  _122
REMARK   47  A    between atoms: _122  and  _123
REMARK   48  A    between atoms: _122  and  _125
REMARK   49  A    between atoms: _125  and  _126
REMARK   50  A    between atoms: _126  and  _127
REMARK   51  A    between atoms: _127  and  _128
REMARK   52  A    between atoms: _137  and  _139
REMARK   53  A    between atoms: _139  and  _140
REMARK   54  A    between atoms: _139  and  _142
REMARK   55  A    between atoms: _142  and  _143
REMARK   56  A    between atoms: _145  and  _147
REMARK   57  A    between atoms: _147  and  _148
REMARK   58  A    between atoms: _147  and  _150
REMARK   59  A    between atoms: _153  and  _155
REMARK   60  A    between atoms: _155  and  _156
REMARK   61  A    between atoms: _155  and  _158
REMARK   62  A    between atoms: _158  and  _159
REMARK   63  A    between atoms: _159  and  _160
REMARK   64  A    between atoms: _163  and  _165
REMARK   65  A    between atoms: _165  and  _166
REMARK   66  A    between atoms: _169  and  _171
REMARK   67  A    between atoms: _171  and  _172
REMARK   68  A    between atoms: _171  and  _174
REMARK   69  A    between atoms: _177  and  _179
REMARK   70  A    between atoms: _179  and  _180
REMARK   71  A    between atoms: _179  and  _182
REMARK   72  A    between atoms: _182  and  _183
REMARK   73  A    between atoms: _183  and  _184
REMARK   74  A    between atoms: _189  and  _191
REMARK   75  A    between atoms: _191  and  _192
REMARK   76  A    between atoms: _191  and  _194
REMARK   77  A    between atoms: _194  and  _195
REMARK   78  A    between atoms: _195  and  _196
REMARK   79  A    between atoms: _199  and  _201
REMARK   80  A    between atoms: _201  and  _202
REMARK   81  A    between atoms: _201  and  _204
REMARK   82  A    between atoms: _204  and  _205
REMARK   83  A    between atoms: _208  and  _210
REMARK   84  A    between atoms: _210  and  _211
REMARK   85  A    between atoms: _210  and  _213
REMARK   86  A    between atoms: _213  and  _214
REMARK   87  A    between atoms: _217  and  _219
REMARK   88  A    between atoms: _219  and  _220
REMARK   89  A    between atoms: _219  and  _222
REMARK   90  A    between atoms: _222  and  _223
REMARK   91  A    between atoms: _228  and  _229
REMARK   92  A    between atoms: _231  and  _233
REMARK   93  A    between atoms: _233  and  _234
REMARK   94  A    between atoms: _233  and  _236
REMARK   95  A    between atoms: _239  and  _241
REMARK   96  A    between atoms: _241  and  _242
REMARK   97  A    between atoms: _241  and  _244
REMARK   98  A    between atoms: _244  and  _245
REMARK   99  A    between atoms: _250  and  _252
REMARK  100  A    between atoms: _252  and  _253
REMARK  101  A    between atoms: _252  and  _255
REMARK  102  A    between atoms: _255  and  _256
REMARK  103  A    between atoms: _256  and  _257
REMARK  104  A    between atoms: _260  and  _262
REMARK  105  A    between atoms: _262  and  _263
REMARK  106  A    between atoms: _262  and  _265
REMARK  107  A    between atoms: _265  and  _266
REMARK  108  A    between atoms: _269  and  _271
REMARK  109  A    between atoms: _271  and  _272
REMARK  110  A    between atoms: _271  and  _274
REMARK  111  A    between atoms: _274  and  _275
REMARK  112  A    between atoms: _278  and  _280
REMARK  113  A    between atoms: _280  and  _281
REMARK  114  A    between atoms: _280  and  _283
REMARK  115  A    between atoms: _283  and  _284
REMARK  116  A    between atoms: _289  and  _290
REMARK  117  A    between atoms: _292  and  _294
REMARK  118  A    between atoms: _294  and  _295
REMARK  119  A    between atoms: _294  and  _297
REMARK  120  A    between atoms: _297  and  _298
REMARK  121  A    between atoms: _301  and  _303
REMARK  122  A    between atoms: _303  and  _304
REMARK  123  A    between atoms: _303  and  _306
REMARK  124  A    between atoms: _306  and  _307
REMARK  125  A    between atoms: _307  and  _308
REMARK  126  A    between atoms: _310  and  _312
REMARK  127  A    between atoms: _312  and  _313
REMARK  128  A    between atoms: _312  and  _315
REMARK  129  A    between atoms: _315  and  _316
REMARK  130  A    between atoms: _319  and  _321
REMARK  131  A    between atoms: _321  and  _322
REMARK  132  A    between atoms: _325  and  _327
REMARK  133  A    between atoms: _327  and  _328
REMARK  134  A    between atoms: _327  and  _330
REMARK  135  A    between atoms: _330  and  _331
REMARK  136  A    between atoms: _333  and  _335
REMARK  137  A    between atoms: _335  and  _336
REMARK  138  A    between atoms: _335  and  _338
REMARK  139  A    between atoms: _338  and  _339
REMARK  140  A    between atoms: _342  and  _344
REMARK  141  A    between atoms: _344  and  _345
REMARK  142  A    between atoms: _344  and  _347
REMARK  143  A    between atoms: _347  and  _348
REMARK  144  A    between atoms: _348  and  _349
REMARK  145  A    between atoms: _351  and  _353
REMARK  146  A    between atoms: _353  and  _354
REMARK  147  A    between atoms: _356  and  _358
REMARK  148  A    between atoms: _358  and  _359
REMARK  149  A    between atoms: _358  and  _361
REMARK  150  A    between atoms: _364  and  _366
REMARK  151  A    between atoms: _366  and  _367
REMARK  152  A    between atoms: _366  and  _369
REMARK  153  A    between atoms: _369  and  _370
REMARK  154  A    between atoms: _373  and  _375
REMARK  155  A    between atoms: _375  and  _376
REMARK  156  A    between atoms: _375  and  _378
REMARK  157  A    between atoms: _378  and  _379
REMARK  158  A    between atoms: _382  and  _384
REMARK  159  A    between atoms: _384  and  _385
REMARK  160  A    between atoms: _384  and  _387
REMARK  161  A    between atoms: _387  and  _388
REMARK  162  A    between atoms: _390  and  _392
REMARK  163  A    between atoms: _392  and  _393
REMARK  164  A    between atoms: _392  and  _395
REMARK  165  A    between atoms: _395  and  _396
REMARK  166  A    between atoms: _396  and  _397
REMARK  167  A    between atoms: _400  and  _402
REMARK  168  A    between atoms: _402  and  _403
REMARK  169  A    between atoms: _405  and  _407
REMARK  170  A    between atoms: _407  and  _408
REMARK  171  A    between atoms: _407  and  _410
REMARK  172  A    between atoms: _410  and  _411
REMARK  173  A    between atoms: _417  and  _419
REMARK  174  A    between atoms: _419  and  _420
REMARK  175  A    between atoms: _419  and  _422
REMARK  176  A    between atoms: _422  and  _423
REMARK  177  A    between atoms: _423  and  _424
REMARK  178  A    between atoms: _426  and  _428
REMARK  179  A    between atoms: _428  and  _429
REMARK  180  A    between atoms: _428  and  _431
REMARK  181  A    between atoms: _431  and  _432
REMARK  182  A    between atoms: _435  and  _437
REMARK  183  A    between atoms: _437  and  _438
REMARK  184  A    between atoms: _437  and  _440
REMARK  185  A    between atoms: _440  and  _441
REMARK  186  A    between atoms: _447  and  _449
REMARK  187  A    between atoms: _449  and  _450
REMARK  188  A    between atoms: _449  and  _452
REMARK  189  A    between atoms: _452  and  _453
REMARK  190  A    between atoms: _456  and  _458
REMARK  191  A    between atoms: _458  and  _459
REMARK  192  A    between atoms: _458  and  _461
REMARK  193  A    between atoms: _461  and  _462
REMARK  194  A    between atoms: _465  and  _467
REMARK  195  A    between atoms: _467  and  _468
REMARK  196  A    between atoms: _467  and  _470
REMARK  197  A    between atoms: _470  and  _471
REMARK  198  A    between atoms: _477  and  _479
REMARK  199  A    between atoms: _479  and  _480
REMARK  200  A    between atoms: _479  and  _482
REMARK  201  A    between atoms: _482  and  _483
REMARK  202  A    between atoms: _483  and  _484
REMARK  203  A    between atoms: _486  and  _488
REMARK  204  A    between atoms: _488  and  _489
REMARK  205  A    between atoms: _488  and  _491
REMARK  206  A    between atoms: _491  and  _492
REMARK  207  A    between atoms: _492  and  _493
REMARK  208  A    between atoms: _493  and  _494
REMARK  209  A    between atoms: _494  and  _495
REMARK  210  A    between atoms: _499  and  _501
REMARK  211  A    between atoms: _501  and  _502
REMARK  212  A    between atoms: _501  and  _504
REMARK  213  A    between atoms: _504  and  _505
REMARK  214  A    between atoms: _511  and  _513
REMARK  215  A    between atoms: _513  and  _514
REMARK  216  A    between atoms: _513  and  _516
REMARK  217  A    between atoms: _516  and  _517
REMARK  218  A    between atoms: _520  and  _522
REMARK  219  A    between atoms: _522  and  _523
REMARK  220  A    between atoms: _522  and  _525
REMARK  221  A    between atoms: _528  and  _530
REMARK  222  A    between atoms: _530  and  _531
REMARK  223  A    between atoms: _530  and  _533
REMARK  224  A    between atoms: _533  and  _534
REMARK  225  A    between atoms: _539  and  _541
REMARK  226  A    between atoms: _541  and  _542
REMARK  227  A    between atoms: _541  and  _544
REMARK  228  A    between atoms: _547  and  _549
REMARK  229  A    between atoms: _549  and  _550
REMARK  230  A    between atoms: _549  and  _552
REMARK  231  A    between atoms: _552  and  _553
REMARK  232  A    between atoms: _556  and  _558
REMARK  233  A    between atoms: _558  and  _559
REMARK  234  A    between atoms: _558  and  _561
REMARK  235  A    between atoms: _561  and  _562
REMARK  236  A    between atoms: _565  and  _567
REMARK  237  A    between atoms: _567  and  _568
REMARK  238  A    between atoms: _567  and  _570
REMARK  239  A    between atoms: _570  and  _571
REMARK  240  A    between atoms: _571  and  _572
REMARK  241  A    between atoms: _574  and  _576
REMARK  242  A    between atoms: _576  and  _577
REMARK  243  A    between atoms: _576  and  _579
REMARK  244  A    between atoms: _579  and  _580
REMARK  245  A    between atoms: _582  and  _584
REMARK  246  A    between atoms: _584  and  _585
REMARK  247  A    between atoms: _584  and  _587
REMARK  248  A    between atoms: _587  and  _588
REMARK  249  A    between atoms: _591  and  _593
REMARK  250  A    between atoms: _593  and  _594
REMARK  251  A    between atoms: _593  and  _596
REMARK  252  A    between atoms: _596  and  _597
REMARK  253  A    between atoms: _602  and  _604
REMARK  254  A    between atoms: _604  and  _605
REMARK  255  A    between atoms: _604  and  _607
REMARK  256  A    between atoms: _607  and  _608
REMARK  257  A    between atoms: _611  and  _613
REMARK  258  A    between atoms: _613  and  _614
REMARK  259  A    between atoms: _613  and  _616
REMARK  260  A    between atoms: _616  and  _617
REMARK  261  A    between atoms: _620  and  _622
REMARK  262  A    between atoms: _622  and  _623
REMARK  263  A    between atoms: _622  and  _625
REMARK  264  A    between atoms: _625  and  _626
REMARK  265  A    between atoms: _626  and  _627
REMARK  266  A    between atoms: _632  and  _634
REMARK  267  A    between atoms: _634  and  _635
REMARK  268  A    between atoms: _634  and  _637
REMARK  269  A    between atoms: _637  and  _638
REMARK  270  A    between atoms: _641  and  _643
REMARK  271  A    between atoms: _643  and  _644
REMARK  272  A    between atoms: _643  and  _646
REMARK  273  A    between atoms: _646  and  _647
REMARK  274  A    between atoms: _652  and  _653
REMARK                            x       y       z     vdW  Elec       q    Type
REMARK                         _______ _______ _______ _____ _____    ______ ____
ROOT
ATOM      1  CA  LEU A   1      29.908  20.588   7.239  0.00  0.00    +0.133 C 
ENDROOT
BRANCH   1   2
ATOM      2  N   LEU A   1      29.944  19.333   6.505  0.00  0.00    -0.239 NA
ATOM      3  H   LEU A   1      29.341  18.540   6.805  0.00  0.00    +0.142 HD
ENDBRANCH   1   2
BRANCH   1   4
ATOM      4  C   LEU A   1      31.151  20.756   8.117  0.00  0.00    +0.224 C 
ATOM      5  O   LEU A   1      31.865  19.787   8.381  0.00  0.00    -0.287 OA
ENDBRANCH   1   4
BRANCH   1   6
ATOM      6  CB  LEU A   1      28.635  20.654   8.086  0.00  0.00    +0.025 C 
BRANCH   6   7
ATOM      7  CG  LEU A   1      27.341  20.588   7.268  0.00  0.00    +0.002 C 
ATOM      8  CD2 LEU A   1      26.125  20.519   8.187  0.00  0.00    +0.000 C 
ATOM      9  CD1 LEU A   1      27.265  21.800   6.363  0.00  0.00    +0.000 C 
ENDBRANCH   6   7
ENDBRANCH   1   6
TORSDOF 4
REMARK  Name = ../refined-set-2016/2i4j/2i4j_pocket.pdb
REMARK  274 active torsions:
REMARK  status: ('A' for Active; 'I' for Inactive)
REMARK    1  A    between atoms: _1  and  _3
REMARK    2  A    between atoms: _3  and  _4
REMARK    3  A    between atoms: _3  and  _6
REMARK    4  A    between atoms: _6  and  _7
REMARK    5  A    between atoms: _12  and  _13
REMARK    6  A    between atoms: _15  and  _17
REMARK    7  A    between atoms: _17  and  _18
REMARK    8  A    between atoms: _17  and  _20
REMARK    9  A    between atoms: _20  and  _21
REMARK   10  A    between atoms: _23  and  _25
REMARK   11  A    between atoms: _25  and  _26
REMARK   12  A    between atoms: _25  and  _28
REMARK   13  A    between atoms: _28  and  _29
REMARK   14  A    between atoms: _36  and  _37
REMARK   15  A    between atoms: _42  and  _44
REMARK   16  A    between atoms: _44  and  _45
REMARK   17  A    between atoms: _44  and  _47
REMARK   18  A    between atoms: _47  and  _48
REMARK   19  A    between atoms: _51  and  _53
REMARK   20  A    between atoms: _53  and  _54
REMARK   21  A    between atoms: _53  and  _56
REMARK   22  A    between atoms: _56  and  _57
REMARK   23  A    between atoms: _60  and  _62
REMARK   24  A    between atoms: _62  and  _63
REMARK   25  A    between atoms: _62  and  _65
REMARK   26  A    between atoms: _65  and  _66
REMARK   27  A    between atoms: _72  and  _74
REMARK   28  A    between atoms: _74  and  _75
REMARK   29  A    between atoms: _74  and  _77
REMARK   30  A    between atoms: _77  and  _78
REMARK   31  A    between atoms: _78  and  _79
REMARK   32  A    between atoms: _84  and  _86
REMARK   33  A    between atoms: _86  and  _87
REMARK   34  A    between atoms: _89  and  _91
REMARK   35  A    between atoms: _91  and  _92
REMARK   36  A    between atoms: _91  and  _94
REMARK   37  A    between atoms: _96  and  _98
REMARK   38  A    between atoms: _98  and  _99
REMARK   39  A    between atoms: _98  and  _101
REMARK   40  A    between atoms: _101  and  _102
REMARK   41  A    between atoms: _102  and  _103
REMARK   42  A    between atoms: _108  and  _110
REMARK   43  A    between atoms: _110  and  _111
REMARK   44  A    between atoms: _110  and  _113
REMARK   45  A    between atoms: _113  and  _114
REMARK   46  A    between atoms: _120  and  _122
REMARK   47  A    between atoms: _122  and  _123
REMARK   48  A    between atoms: _122  and  _125
REMARK   49  A    between atoms: _125  and  _126
REMARK   50  A    between atoms: _126  and  _127
REMARK   51  A    between atoms: _127  and  _128
REMARK   52  A    between atoms: _137  and  _139
REMARK   53  A    between atoms: _139  and  _140
REMARK   54  A    between atoms: _139  and  _142
REMARK   55  A    between atoms: _142  and  _143
REMARK   56  A    between atoms: _145  and  _147
REMARK   57  A    between atoms: _147  and  _148
REMARK   58  A    between atoms: _147  and  _150
REMARK   59  A    between atoms: _153  and  _155
REMARK   60  A    between atoms: _155  and  _156
REMARK   61  A    between atoms: _155  and  _158
REMARK   62  A    between atoms: _158  and  _159
REMARK   63  A    between atoms: _159  and  _160
REMARK   64  A    between atoms: _163  and  _165
REMARK   65  A    between atoms: _165  and  _166
REMARK   66  A    between atoms: _169  and  _171
REMARK   67  A    between atoms: _171  and  _172
REMARK   68  A    between atoms: _171  and  _174
REMARK   69  A    between atoms: _177  and  _179
REMARK   70  A    between atoms: _179  and  _180
REMARK   71  A    between atoms: _179  and  _182
REMARK   72  A    between atoms: _182  and  _183
REMARK   73  A    between atoms: _183  and  _184
REMARK   74  A    between atoms: _189  and  _191
REMARK   75  A    between atoms: _191  and  _192
REMARK   76  A    between atoms: _191  and  _194
REMARK   77  A    between atoms: _194  and  _195
REMARK   78  A    between atoms: _195  and  _196
REMARK   79  A    between atoms: _199  and  _201
REMARK   80  A    between atoms: _201  and  _202
REMARK   81  A    between atoms: _201  and  _204
REMARK   82  A    between atoms: _204  and  _205
REMARK   83  A    between atoms: _208  and  _210
REMARK   84  A    between atoms: _210  and  _211
REMARK   85  A    between atoms: _210  and  _213
REMARK   86  A    between atoms: _213  and  _214
REMARK   87  A    between atoms: _217  and  _219
REMARK   88  A    between atoms: _219  and  _220
REMARK   89  A    between atoms: _219  and  _222
REMARK   90  A    between atoms: _222  and  _223
REMARK   91  A    between atoms: _228  and  _229
REMARK   92  A    between atoms: _231  and  _233
REMARK   93  A    between atoms: _233  and  _234
REMARK   94  A    between atoms: _233  and  _236
REMARK   95  A    between atoms: _239  and  _241
REMARK   96  A    between atoms: _241  and  _242
REMARK   97  A    between atoms: _241  and  _244
REMARK   98  A    between atoms: _244  and  _245
REMARK   99  A    between atoms: _250  and  _252
REMARK  100  A    between atoms: _252  and  _253
REMARK  101  A    between atoms: _252  and  _255
REMARK  102  A    between atoms: _255  and  _256
REMARK  103  A    between atoms: _256  and  _257
REMARK  104  A    between atoms: _260  and  _262
REMARK  105  A    between atoms: _262  and  _263
REMARK  106  A    between atoms: _262  and  _265
REMARK  107  A    between atoms: _265  and  _266
REMARK  108  A    between atoms: _269  and  _271
REMARK  109  A    between atoms: _271  and  _272
REMARK  110  A    between atoms: _271  and  _274
REMARK  111  A    between atoms: _274  and  _275
REMARK  112  A    between atoms: _278  and  _280
REMARK  113  A    between atoms: _280  and  _281
REMARK  114  A    between atoms: _280  and  _283
REMARK  115  A    between atoms: _283  and  _284
REMARK  116  A    between atoms: _289  and  _290
REMARK  117  A    between atoms: _292  and  _294
REMARK  118  A    between atoms: _294  and  _295
REMARK  119  A    between atoms: _294  and  _297
REMARK  120  A    between atoms: _297  and  _298
REMARK  121  A    between atoms: _301  and  _303
REMARK  122  A    between atoms: _303  and  _304
REMARK  123  A    between atoms: _303  and  _306
REMARK  124  A    between atoms: _306  and  _307
REMARK  125  A    between atoms: _307  and  _308
REMARK  126  A    between atoms: _310  and  _312
REMARK  127  A    between atoms: _312  and  _313
REMARK  128  A    between atoms: _312  and  _315
REMARK  129  A    between atoms: _315  and  _316
REMARK  130  A    between atoms: _319  and  _321
REMARK  131  A    between atoms: _321  and  _322
REMARK  132  A    between atoms: _325  and  _327
REMARK  133  A    between atoms: _327  and  _328
REMARK  134  A    between atoms: _327  and  _330
REMARK  135  A    between atoms: _330  and  _331
REMARK  136  A    between atoms: _333  and  _335
REMARK  137  A    between atoms: _335  and  _336
REMARK  138  A    between atoms: _335  and  _338
REMARK  139  A    between atoms: _338  and  _339
REMARK  140  A    between atoms: _342  and  _344
REMARK  141  A    between atoms: _344  and  _345
REMARK  142  A    between atoms: _344  and  _347
REMARK  143  A    between atoms: _347  and  _348
REMARK  144  A    between atoms: _348  and  _349
REMARK  145  A    between atoms: _351  and  _353
REMARK  146  A    between atoms: _353  and  _354
REMARK  147  A    between atoms: _356  and  _358
REMARK  148  A    between atoms: _358  and  _359
REMARK  149  A    between atoms: _358  and  _361
REMARK  150  A    between atoms: _364  and  _366
REMARK  151  A    between atoms: _366  and  _367
REMARK  152  A    between atoms: _366  and  _369
REMARK  153  A    between atoms: _369  and  _370
REMARK  154  A    between atoms: _373  and  _375
REMARK  155  A    between atoms: _375  and  _376
REMARK  156  A    between atoms: _375  and  _378
REMARK  157  A    between atoms: _378  and  _379
REMARK  158  A    between atoms: _382  and  _384
REMARK  159  A    between atoms: _384  and  _385
REMARK  160  A    between atoms: _384  and  _387
REMARK  161  A    between atoms: _387  and  _388
REMARK  162  A    between atoms: _390  and  _392
REMARK  163  A    between atoms: _392  and  _393
REMARK  164  A    between atoms: _392  and  _395
REMARK  165  A    between atoms: _395  and  _396
REMARK  166  A    between atoms: _396  and  _397
REMARK  167  A    between atoms: _400  and  _402
REMARK  168  A    between atoms: _402  and  _403
REMARK  169  A    between atoms: _405  and  _407
REMARK  170  A    between atoms: _407  and  _408
REMARK  171  A    between atoms: _407  and  _410
REMARK  172  A    between atoms: _410  and  _411
REMARK  173  A    between atoms: _417  and  _419
REMARK  174  A    between atoms: _419  and  _420
REMARK  175  A    between atoms: _419  and  _422
REMARK  176  A    between atoms: _422  and  _423
REMARK  177  A    between atoms: _423  and  _424
REMARK  178  A    between atoms: _426  and  _428
REMARK  179  A    between atoms: _428  and  _429
REMARK  180  A    between atoms: _428  and  _431
REMARK  181  A    between atoms: _431  and  _432
REMARK  182  A    between atoms: _435  and  _437
REMARK  183  A    between atoms: _437  and  _438
REMARK  184  A    between atoms: _437  and  _440
REMARK  185  A    between atoms: _440  and  _441
REMARK  186  A    between atoms: _447  and  _449
REMARK  187  A    between atoms: _449  and  _450
REMARK  188  A    between atoms: _449  and  _452
REMARK  189  A    between atoms: _452  and  _453
REMARK  190  A    between atoms: _456  and  _458
REMARK  191  A    between atoms: _458  and  _459
REMARK  192  A    between atoms: _458  and  _461
REMARK  193  A    between atoms: _461  and  _462
REMARK  194  A    between atoms: _465  and  _467
REMARK  195  A    between atoms: _467  and  _468
REMARK  196  A    between atoms: _467  and  _470
REMARK  197  A    between atoms: _470  and  _471
REMARK  198  A    between atoms: _477  and  _479
REMARK  199  A    between atoms: _479  and  _480
REMARK  200  A    between atoms: _479  and  _482
REMARK  201  A    between atoms: _482  and  _483
REMARK  202  A    between atoms: _483  and  _484
REMARK  203  A    between atoms: _486  and  _488
REMARK  204  A    between atoms: _488  and  _489
REMARK  205  A    between atoms: _488  and  _491
REMARK  206  A    between atoms: _491  and  _492
REMARK  207  A    between atoms: _492  and  _493
REMARK  208  A    between atoms: _493  and  _494
REMARK  209  A    between atoms: _494  and  _495
REMARK  210  A    between atoms: _499  and  _501
REMARK  211  A    between atoms: _501  and  _502
REMARK  212  A    between atoms: _501  and  _504
REMARK  213  A    between atoms: _504  and  _505
REMARK  214  A    between atoms: _511  and  _513
REMARK  215  A    between atoms: _513  and  _514
REMARK  216  A    between atoms: _513  and  _516
REMARK  217  A    between atoms: _516  and  _517
REMARK  218  A    between atoms: _520  and  _522
REMARK  219  A    between atoms: _522  and  _523
REMARK  220  A    between atoms: _522  and  _525
REMARK  221  A    between atoms: _528  and  _530
REMARK  222  A    between atoms: _530  and  _531
REMARK  223  A    between atoms: _530  and  _533
REMARK  224  A    between atoms: _533  and  _534
REMARK  225  A    between atoms: _539  and  _541
REMARK  226  A    between atoms: _541  and  _542
REMARK  227  A    between atoms: _541  and  _544
REMARK  228  A    between atoms: _547  and  _549
REMARK  229  A    between atoms: _549  and  _550
REMARK  230  A    between atoms: _549  and  _552
REMARK  231  A    between atoms: _552  and  _553
REMARK  232  A    between atoms: _556  and  _558
REMARK  233  A    between atoms: _558  and  _559
REMARK  234  A    between atoms: _558  and  _561
REMARK  235  A    between atoms: _561  and  _562
REMARK  236  A    between atoms: _565  and  _567
REMARK  237  A    between atoms: _567  and  _568
REMARK  238  A    between atoms: _567  and  _570
REMARK  239  A    between atoms: _570  and  _571
REMARK  240  A    between atoms: _571  and  _572
REMARK  241  A    between atoms: _574  and  _576
REMARK  242  A    between atoms: _576  and  _577
REMARK  243  A    between atoms: _576  and  _579
REMARK  244  A    between atoms: _579  and  _580
REMARK  245  A    between atoms: _582  and  _584
REMARK  246  A    between atoms: _584  and  _585
REMARK  247  A    between atoms: _584  and  _587
REMARK  248  A    between atoms: _587  and  _588
REMARK  249  A    between atoms: _591  and  _593
REMARK  250  A    between atoms: _593  and  _594
REMARK  251  A    between atoms: _593  and  _596
REMARK  252  A    between atoms: _596  and  _597
REMARK  253  A    between atoms: _602  and  _604
REMARK  254  A    between atoms: _604  and  _605
REMARK  255  A    between atoms: _604  and  _607
REMARK  256  A    between atoms: _607  and  _608
REMARK  257  A    between atoms: _611  and  _613
REMARK  258  A    between atoms: _613  and  _614
REMARK  259  A    between atoms: _613  and  _616
REMARK  260  A    between atoms: _616  and  _617
REMARK  261  A    between atoms: _620  and  _622
REMARK  262  A    between atoms: _622  and  _623
REMARK  263  A    between atoms: _622  and  _625
REMARK  264  A    between atoms: _625  and  _626
REMARK  265  A    between atoms: _626  and  _627
REMARK  266  A    between atoms: _632  and  _634
REMARK  267  A    between atoms: _634  and  _635
REMARK  268  A    between atoms: _634  and  _637
REMARK  269  A    between atoms: _637  and  _638
REMARK  270  A    between atoms: _641  and  _643
REMARK  271  A    between atoms: _643  and  _644
REMARK  272  A    between atoms: _643  and  _646
REMARK  273  A    between atoms: _646  and  _647
REMARK  274  A    between atoms: _652  and  _653
REMARK                            x       y       z     vdW  Elec       q    Type
REMARK                         _______ _______ _______ _____ _____    ______ ____
ROOT
ATOM      1  C   PHE A   1      25.527  14.282  13.575  0.00  0.00    +0.239 C 
ATOM      2  O   PHE A   1      25.009  13.500  14.367  0.00  0.00    -0.274 OA
ATOM      3  N   MET A   2      25.225  14.290  12.279  0.00  0.00    -0.298 N 
ATOM      4  H   MET A   2      25.734  14.936  11.642  0.00  0.00    +0.150 HD
ENDROOT
BRANCH   1   5
ATOM      5  CA  PHE A   1      26.582  15.287  14.051  0.00  0.00    +0.149 C 
BRANCH   5   6
ATOM      6  N   PHE A   1      27.727  15.351  13.156  0.00  0.00    -0.238 NA
ATOM      7  H   PHE A   1      27.933  16.236  12.650  0.00  0.00    +0.142 HD
ENDBRANCH   5   6
BRANCH   5   8
ATOM      8  CB  PHE A   1      25.938  16.674  14.182  0.00  0.00    +0.053 C 
BRANCH   8   9
ATOM      9  CG  PHE A   1      26.172  17.331  15.512  0.00  0.00    -0.020 A 
ATOM     10  CD2 PHE A   1      25.447  16.941  16.633  0.00  0.00    -0.004 A 
ATOM     11  CE2 PHE A   1      25.688  17.530  17.881  0.00  0.00    -0.000 A 
ATOM     12  CZ  PHE A   1      26.663  18.520  18.010  0.00  0.00    -0.000 A 
ATOM     13  CE1 PHE A   1      27.390  18.916  16.895  0.00  0.00    -0.000 A 
ATOM     14  CD1 PHE A   1      27.142  18.323  15.653  0.00  0.00    -0.004 A 
ENDBRANCH   8   9
ENDBRANCH   5   8
ENDBRANCH   1   5
BRANCH   3  15
ATOM     15  CA  MET A   2      24.192  13.409  11.731  0.00  0.00    +0.138 C 
BRANCH  15  16
ATOM     16  C   MET A   2      24.579  11.999  11.276  0.00  0.00    +0.227 C 
ATOM     17  O   MET A   2      23.725  11.122  11.208  0.00  0.00    -0.286 OA
ENDBRANCH  15  16
BRANCH  15  18
ATOM     18  CB  MET A   2      23.479  14.117  10.576  0.00  0.00    +0.039 C 
BRANCH  18  19
ATOM     19  CG  MET A   2      22.679  15.342  10.991  0.00  0.00    +0.060 C 
BRANCH  19  20
ATOM     20  SD  MET A   2      21.304  14.928  12.077  0.00  0.00    -0.139 S 
ATOM     21  CE  MET A   2      20.250  14.065  10.950  0.00  0.00    +0.069 C 
ENDBRANCH  19  20
ENDBRANCH  18  19
ENDBRANCH  15  18
ENDBRANCH   3  15
TORSDOF 9
REMARK  Name = ../refined-set-2016/2i4j/2i4j_pocket.pdb
REMARK  274 active torsions:
REMARK  status: ('A' for Active; 'I' for Inactive)
REMARK    1  A    between atoms: _1  and  _3
REMARK    2  A    between atoms: _3  and  _4
REMARK    3  A    between atoms: _3  and  _6
REMARK    4  A    between atoms: _6  and  _7
REMARK    5  A    between atoms: _12  and  _13
REMARK    6  A    between atoms: _15  and  _17
REMARK    7  A    between atoms: _17  and  _18
REMARK    8  A    between atoms: _17  and  _20
REMARK    9  A    between atoms: _20  and  _21
REMARK   10  A    between atoms: _23  and  _25
REMARK   11  A    between atoms: _25  and  _26
REMARK   12  A    between atoms: _25  and  _28
REMARK   13  A    between atoms: _28  and  _29
REMARK   14  A    between atoms: _36  and  _37
REMARK   15  A    between atoms: _42  and  _44
REMARK   16  A    between atoms: _44  and  _45
REMARK   17  A    between atoms: _44  and  _47
REMARK   18  A    between atoms: _47  and  _48
REMARK   19  A    between atoms: _51  and  _53
REMARK   20  A    between atoms: _53  and  _54
REMARK   21  A    between atoms: _53  and  _56
REMARK   22  A    between atoms: _56  and  _57
REMARK   23  A    between atoms: _60  and  _62
REMARK   24  A    between atoms: _62  and  _63
REMARK   25  A    between atoms: _62  and  _65
REMARK   26  A    between atoms: _65  and  _66
REMARK   27  A    between atoms: _72  and  _74
REMARK   28  A    between atoms: _74  and  _75
REMARK   29  A    between atoms: _74  and  _77
REMARK   30  A    between atoms: _77  and  _78
REMARK   31  A    between atoms: _78  and  _79
REMARK   32  A    between atoms: _84  and  _86
REMARK   33  A    between atoms: _86  and  _87
REMARK   34  A    between atoms: _89  and  _91
REMARK   35  A    between atoms: _91  and  _92
REMARK   36  A    between atoms: _91  and  _94
REMARK   37  A    between atoms: _96  and  _98
REMARK   38  A    between atoms: _98  and  _99
REMARK   39  A    between atoms: _98  and  _101
REMARK   40  A    between atoms: _101  and  _102
REMARK   41  A    between atoms: _102  and  _103
REMARK   42  A    between atoms: _108  and  _110
REMARK   43  A    between atoms: _110  and  _111
REMARK   44  A    between atoms: _110  and  _113
REMARK   45  A    between atoms: _113  and  _114
REMARK   46  A    between atoms: _120  and  _122
REMARK   47  A    between atoms: _122  and  _123
REMARK   48  A    between atoms: _122  and  _125
REMARK   49  A    between atoms: _125  and  _126
REMARK   50  A    between atoms: _126  and  _127
REMARK   51  A    between atoms: _127  and  _128
REMARK   52  A    between atoms: _137  and  _139
REMARK   53  A    between atoms: _139  and  _140
REMARK   54  A    between atoms: _139  and  _142
REMARK   55  A    between atoms: _142  and  _143
REMARK   56  A    between atoms: _145  and  _147
REMARK   57  A    between atoms: _147  and  _148
REMARK   58  A    between atoms: _147  and  _150
REMARK   59  A    between atoms: _153  and  _155
REMARK   60  A    between atoms: _155  and  _156
REMARK   61  A    between atoms: _155  and  _158
REMARK   62  A    between atoms: _158  and  _159
REMARK   63  A    between atoms: _159  and  _160
REMARK   64  A    between atoms: _163  and  _165
REMARK   65  A    between atoms: _165  and  _166
REMARK   66  A    between atoms: _169  and  _171
REMARK   67  A    between atoms: _171  and  _172
REMARK   68  A    between atoms: _171  and  _174
REMARK   69  A    between atoms: _177  and  _179
REMARK   70  A    between atoms: _179  and  _180
REMARK   71  A    between atoms: _179  and  _182
REMARK   72  A    between atoms: _182  and  _183
REMARK   73  A    between atoms: _183  and  _184
REMARK   74  A    between atoms: _189  and  _191
REMARK   75  A    between atoms: _191  and  _192
REMARK   76  A    between atoms: _191  and  _194
REMARK   77  A    between atoms: _194  and  _195
REMARK   78  A    between atoms: _195  and  _196
REMARK   79  A    between atoms: _199  and  _201
REMARK   80  A    between atoms: _201  and  _202
REMARK   81  A    between atoms: _201  and  _204
REMARK   82  A    between atoms: _204  and  _205
REMARK   83  A    between atoms: _208  and  _210
REMARK   84  A    between atoms: _210  and  _211
REMARK   85  A    between atoms: _210  and  _213
REMARK   86  A    between atoms: _213  and  _214
REMARK   87  A    between atoms: _217  and  _219
REMARK   88  A    between atoms: _219  and  _220
REMARK   89  A    between atoms: _219  and  _222
REMARK   90  A    between atoms: _222  and  _223
REMARK   91  A    between atoms: _228  and  _229
REMARK   92  A    between atoms: _231  and  _233
REMARK   93  A    between atoms: _233  and  _234
REMARK   94  A    between atoms: _233  and  _236
REMARK   95  A    between atoms: _239  and  _241
REMARK   96  A    between atoms: _241  and  _242
REMARK   97  A    between atoms: _241  and  _244
REMARK   98  A    between atoms: _244  and  _245
REMARK   99  A    between atoms: _250  and  _252
REMARK  100  A    between atoms: _252  and  _253
REMARK  101  A    between atoms: _252  and  _255
REMARK  102  A    between atoms: _255  and  _256
REMARK  103  A    between atoms: _256  and  _257
REMARK  104  A    between atoms: _260  and  _262
REMARK  105  A    between atoms: _262  and  _263
REMARK  106  A    between atoms: _262  and  _265
REMARK  107  A    between atoms: _265  and  _266
REMARK  108  A    between atoms: _269  and  _271
REMARK  109  A    between atoms: _271  and  _272
REMARK  110  A    between atoms: _271  and  _274
REMARK  111  A    between atoms: _274  and  _275
REMARK  112  A    between atoms: _278  and  _280
REMARK  113  A    between atoms: _280  and  _281
REMARK  114  A    between atoms: _280  and  _283
REMARK  115  A    between atoms: _283  and  _284
REMARK  116  A    between atoms: _289  and  _290
REMARK  117  A    between atoms: _292  and  _294
REMARK  118  A    between atoms: _294  and  _295
REMARK  119  A    between atoms: _294  and  _297
REMARK  120  A    between atoms: _297  and  _298
REMARK  121  A    between atoms: _301  and  _303
REMARK  122  A    between atoms: _303  and  _304
REMARK  123  A    between atoms: _303  and  _306
REMARK  124  A    between atoms: _306  and  _307
REMARK  125  A    between atoms: _307  and  _308
REMARK  126  A    between atoms: _310  and  _312
REMARK  127  A    between atoms: _312  and  _313
REMARK  128  A    between atoms: _312  and  _315
REMARK  129  A    between atoms: _315  and  _316
REMARK  130  A    between atoms: _319  and  _321
REMARK  131  A    between atoms: _321  and  _322
REMARK  132  A    between atoms: _325  and  _327
REMARK  133  A    between atoms: _327  and  _328
REMARK  134  A    between atoms: _327  and  _330
REMARK  135  A    between atoms: _330  and  _331
REMARK  136  A    between atoms: _333  and  _335
REMARK  137  A    between atoms: _335  and  _336
REMARK  138  A    between atoms: _335  and  _338
REMARK  139  A    between atoms: _338  and  _339
REMARK  140  A    between atoms: _342  and  _344
REMARK  141  A    between atoms: _344  and  _345
REMARK  142  A    between atoms: _344  and  _347
REMARK  143  A    between atoms: _347  and  _348
REMARK  144  A    between atoms: _348  and  _349
REMARK  145  A    between atoms: _351  and  _353
REMARK  146  A    between atoms: _353  and  _354
REMARK  147  A    between atoms: _356  and  _358
REMARK  148  A    between atoms: _358  and  _359
REMARK  149  A    between atoms: _358  and  _361
REMARK  150  A    between atoms: _364  and  _366
REMARK  151  A    between atoms: _366  and  _367
REMARK  152  A    between atoms: _366  and  _369
REMARK  153  A    between atoms: _369  and  _370
REMARK  154  A    between atoms: _373  and  _375
REMARK  155  A    between atoms: _375  and  _376
REMARK  156  A    between atoms: _375  and  _378
REMARK  157  A    between atoms: _378  and  _379
REMARK  158  A    between atoms: _382  and  _384
REMARK  159  A    between atoms: _384  and  _385
REMARK  160  A    between atoms: _384  and  _387
REMARK  161  A    between atoms: _387  and  _388
REMARK  162  A    between atoms: _390  and  _392
REMARK  163  A    between atoms: _392  and  _393
REMARK  164  A    between atoms: _392  and  _395
REMARK  165  A    between atoms: _395  and  _396
REMARK  166  A    between atoms: _396  and  _397
REMARK  167  A    between atoms: _400  and  _402
REMARK  168  A    between atoms: _402  and  _403
REMARK  169  A    between atoms: _405  and  _407
REMARK  170  A    between atoms: _407  and  _408
REMARK  171  A    between atoms: _407  and  _410
REMARK  172  A    between atoms: _410  and  _411
REMARK  173  A    between atoms: _417  and  _419
REMARK  174  A    between atoms: _419  and  _420
REMARK  175  A    between atoms: _419  and  _422
REMARK  176  A    between atoms: _422  and  _423
REMARK  177  A    between atoms: _423  and  _424
REMARK  178  A    between atoms: _426  and  _428
REMARK  179  A    between atoms: _428  and  _429
REMARK  180  A    between atoms: _428  and  _431
REMARK  181  A    between atoms: _431  and  _432
REMARK  182  A    between atoms: _435  and  _437
REMARK  183  A    between atoms: _437  and  _438
REMARK  184  A    between atoms: _437  and  _440
REMARK  185  A    between atoms: _440  and  _441
REMARK  186  A    between atoms: _447  and  _449
REMARK  187  A    between atoms: _449  and  _450
REMARK  188  A    between atoms: _449  and  _452
REMARK  189  A    between atoms: _452  and  _453
REMARK  190  A    between atoms: _456  and  _458
REMARK  191  A    between atoms: _458  and  _459
REMARK  192  A    between atoms: _458  and  _461
REMARK  193  A    between atoms: _461  and  _462
REMARK  194  A    between atoms: _465  and  _467
REMARK  195  A    between atoms: _467  and  _468
REMARK  196  A    between atoms: _467  and  _470
REMARK  197  A    between atoms: _470  and  _471
REMARK  198  A    between atoms: _477  and  _479
REMARK  199  A    between atoms: _479  and  _480
REMARK  200  A    between atoms: _479  and  _482
REMARK  201  A    between atoms: _482  and  _483
REMARK  202  A    between atoms: _483  and  _484
REMARK  203  A    between atoms: _486  and  _488
REMARK  204  A    between atoms: _488  and  _489
REMARK  205  A    between atoms: _488  and  _491
REMARK  206  A    between atoms: _491  and  _492
REMARK  207  A    between atoms: _492  and  _493
REMARK  208  A    between atoms: _493  and  _494
REMARK  209  A    between atoms: _494  and  _495
REMARK  210  A    between atoms: _499  and  _501
REMARK  211  A    between atoms: _501  and  _502
REMARK  212  A    between atoms: _501  and  _504
REMARK  213  A    between atoms: _504  and  _505
REMARK  214  A    between atoms: _511  and  _513
REMARK  215  A    between atoms: _513  and  _514
REMARK  216  A    between atoms: _513  and  _516
REMARK  217  A    between atoms: _516  and  _517
REMARK  218  A    between atoms: _520  and  _522
REMARK  219  A    between atoms: _522  and  _523
REMARK  220  A    between atoms: _522  and  _525
REMARK  221  A    between atoms: _528  and  _530
REMARK  222  A    between atoms: _530  and  _531
REMARK  223  A    between atoms: _530  and  _533
REMARK  224  A    between atoms: _533  and  _534
REMARK  225  A    between atoms: _539  and  _541
REMARK  226  A    between atoms: _541  and  _542
REMARK  227  A    between atoms: _541  and  _544
REMARK  228  A    between atoms: _547  and  _549
REMARK  229  A    between atoms: _549  and  _550
REMARK  230  A    between atoms: _549  and  _552
REMARK  231  A    between atoms: _552  and  _553
REMARK  232  A    between atoms: _556  and  _558
REMARK  233  A    between atoms: _558  and  _559
REMARK  234  A    between atoms: _558  and  _561
REMARK  235  A    between atoms: _561  and  _562
REMARK  236  A    between atoms: _565  and  _567
REMARK  237  A    between atoms: _567  and  _568
REMARK  238  A    between atoms: _567  and  _570
REMARK  239  A    between atoms: _570  and  _571
REMARK  240  A    between atoms: _571  and  _572
REMARK  241  A    between atoms: _574  and  _576
REMARK  242  A    between atoms: _576  and  _577
REMARK  243  A    between atoms: _576  and  _579
REMARK  244  A    between atoms: _579  and  _580
REMARK  245  A    between atoms: _582  and  _584
REMARK  246  A    between atoms: _584  and  _585
REMARK  247  A    between atoms: _584  and  _587
REMARK  248  A    between atoms: _587  and  _588
REMARK  249  A    between atoms: _591  and  _593
REMARK  250  A    between atoms: _593  and  _594
REMARK  251  A    between atoms: _593  and  _596
REMARK  252  A    between atoms: _596  and  _597
REMARK  253  A    between atoms: _602  and  _604
REMARK  254  A    between atoms: _604  and  _605
REMARK  255  A    between atoms: _604  and  _607
REMARK  256  A    between atoms: _607  and  _608
REMARK  257  A    between atoms: _611  and  _613
REMARK  258  A    between atoms: _613  and  _614
REMARK  259  A    between atoms: _613  and  _616
REMARK  260  A    between atoms: _616  and  _617
REMARK  261  A    between atoms: _620  and  _622
REMARK  262  A    between atoms: _622  and  _623
REMARK  263  A    between atoms: _622  and  _625
REMARK  264  A    between atoms: _625  and  _626
REMARK  265  A    between atoms: _626  and  _627
REMARK  266  A    between atoms: _632  and  _634
REMARK  267  A    between atoms: _634  and  _635
REMARK  268  A    between atoms: _634  and  _637
REMARK  269  A    between atoms: _637  and  _638
REMARK  270  A    between atoms: _641  and  _643
REMARK  271  A    between atoms: _643  and  _644
REMARK  272  A    between atoms: _643  and  _646
REMARK  273  A    between atoms: _646  and  _647
REMARK  274  A    between atoms: _652  and  _653
REMARK                            x       y       z     vdW  Elec       q    Type
REMARK                         _______ _______ _______ _____ _____    ______ ____
ROOT
ATOM      1  C   LYS A   1      21.449   8.095  11.795  0.00  0.00    +0.238 C 
ATOM      2  O   LYS A   1      20.576   7.231  11.786  0.00  0.00    -0.274 OA
ATOM      3  N   PHE A   2      22.179   8.397  10.727  0.00  0.00    -0.298 N 
ATOM      4  H   PHE A   2      22.895   9.148  10.797  0.00  0.00    +0.150 HD
ENDROOT
BRANCH   1   5
ATOM      5  CA  LYS A   1      21.753   8.889  13.063  0.00  0.00    +0.145 C 
BRANCH   5   6
ATOM      6  N   LYS A   1      23.210   9.028  13.151  0.00  0.00    -0.238 NA
ATOM      7  H   LYS A   1      23.649   9.954  12.972  0.00  0.00    +0.142 HD
ENDBRANCH   5   6
BRANCH   5   8
ATOM      8  CB  LYS A   1      21.048  10.254  12.978  0.00  0.00    +0.026 C 
BRANCH   8   9
ATOM      9  CG  LYS A   1      21.508  11.295  13.998  0.00  0.00    -0.000 C 
BRANCH   9  10
ATOM     10  CD  LYS A   1      21.624  10.716  15.376  0.00  0.00    -0.024 C 
BRANCH  10  11
ATOM     11  CE  LYS A   1      22.707  11.422  16.167  0.00  0.00    -0.086 C 
BRANCH  11  12
ATOM     12  NZ  LYS A   1      22.409  12.859  16.406  0.00  0.00    +0.380 N 
ATOM     13  HZ1 LYS A   1      23.185  13.287  16.951  0.00  0.00    -0.089 HD
ATOM     14  HZ2 LYS A   1      21.521  12.943  16.940  0.00  0.00    -0.089 HD
ATOM     15  HZ3 LYS A   1      22.314  13.348  15.493  0.00  0.00    -0.089 HD
ENDBRANCH  11  12
ENDBRANCH  10  11
ENDBRANCH   9  10
ENDBRANCH   8   9
ENDBRANCH   5   8
ENDBRANCH   1   5
BRANCH   3  16
ATOM     16  CA  PHE A   2      22.001   7.702   9.461  0.00  0.00    +0.141 C 
BRANCH  16  17
ATOM     17  C   PHE A   2      22.368   6.233   9.604  0.00  0.00    +0.227 C 
ATOM     18  O   PHE A   2      21.649   5.354   9.121  0.00  0.00    -0.286 OA
ENDBRANCH  16  17
BRANCH  16  19
ATOM     19  CB  PHE A   2      22.878   8.329   8.377  0.00  0.00    +0.054 C 
BRANCH  19  20
ATOM     20  CG  PHE A   2      22.280   9.545   7.738  0.00  0.00    -0.020 A 
ATOM     21  CD2 PHE A   2      22.845  10.804   7.942  0.00  0.00    -0.004 A 
ATOM     22  CE2 PHE A   2      22.297  11.942   7.352  0.00  0.00    -0.000 A 
ATOM     23  CZ  PHE A   2      21.157  11.826   6.539  0.00  0.00    -0.000 A 
ATOM     24  CE1 PHE A   2      20.586  10.574   6.329  0.00  0.00    -0.000 A 
ATOM     25  CD1 PHE A   2      21.152   9.437   6.931  0.00  0.00    -0.004 A 
ENDBRANCH  19  20
ENDBRANCH  16  19
ENDBRANCH   3  16
TORSDOF 11
REMARK  Name = ../refined-set-2016/2i4j/2i4j_pocket.pdb
REMARK  274 active torsions:
REMARK  status: ('A' for Active; 'I' for Inactive)
REMARK    1  A    between atoms: _1  and  _3
REMARK    2  A    between atoms: _3  and  _4
REMARK    3  A    between atoms: _3  and  _6
REMARK    4  A    between atoms: _6  and  _7
REMARK    5  A    between atoms: _12  and  _13
REMARK    6  A    between atoms: _15  and  _17
REMARK    7  A    between atoms: _17  and  _18
REMARK    8  A    between atoms: _17  and  _20
REMARK    9  A    between atoms: _20  and  _21
REMARK   10  A    between atoms: _23  and  _25
REMARK   11  A    between atoms: _25  and  _26
REMARK   12  A    between atoms: _25  and  _28
REMARK   13  A    between atoms: _28  and  _29
REMARK   14  A    between atoms: _36  and  _37
REMARK   15  A    between atoms: _42  and  _44
REMARK   16  A    between atoms: _44  and  _45
REMARK   17  A    between atoms: _44  and  _47
REMARK   18  A    between atoms: _47  and  _48
REMARK   19  A    between atoms: _51  and  _53
REMARK   20  A    between atoms: _53  and  _54
REMARK   21  A    between atoms: _53  and  _56
REMARK   22  A    between atoms: _56  and  _57
REMARK   23  A    between atoms: _60  and  _62
REMARK   24  A    between atoms: _62  and  _63
REMARK   25  A    between atoms: _62  and  _65
REMARK   26  A    between atoms: _65  and  _66
REMARK   27  A    between atoms: _72  and  _74
REMARK   28  A    between atoms: _74  and  _75
REMARK   29  A    between atoms: _74  and  _77
REMARK   30  A    between atoms: _77  and  _78
REMARK   31  A    between atoms: _78  and  _79
REMARK   32  A    between atoms: _84  and  _86
REMARK   33  A    between atoms: _86  and  _87
REMARK   34  A    between atoms: _89  and  _91
REMARK   35  A    between atoms: _91  and  _92
REMARK   36  A    between atoms: _91  and  _94
REMARK   37  A    between atoms: _96  and  _98
REMARK   38  A    between atoms: _98  and  _99
REMARK   39  A    between atoms: _98  and  _101
REMARK   40  A    between atoms: _101  and  _102
REMARK   41  A    between atoms: _102  and  _103
REMARK   42  A    between atoms: _108  and  _110
REMARK   43  A    between atoms: _110  and  _111
REMARK   44  A    between atoms: _110  and  _113
REMARK   45  A    between atoms: _113  and  _114
REMARK   46  A    between atoms: _120  and  _122
REMARK   47  A    between atoms: _122  and  _123
REMARK   48  A    between atoms: _122  and  _125
REMARK   49  A    between atoms: _125  and  _126
REMARK   50  A    between atoms: _126  and  _127
REMARK   51  A    between atoms: _127  and  _128
REMARK   52  A    between atoms: _137  and  _139
REMARK   53  A    between atoms: _139  and  _140
REMARK   54  A    between atoms: _139  and  _142
REMARK   55  A    between atoms: _142  and  _143
REMARK   56  A    between atoms: _145  and  _147
REMARK   57  A    between atoms: _147  and  _148
REMARK   58  A    between atoms: _147  and  _150
REMARK   59  A    between atoms: _153  and  _155
REMARK   60  A    between atoms: _155  and  _156
REMARK   61  A    between atoms: _155  and  _158
REMARK   62  A    between atoms: _158  and  _159
REMARK   63  A    between atoms: _159  and  _160
REMARK   64  A    between atoms: _163  and  _165
REMARK   65  A    between atoms: _165  and  _166
REMARK   66  A    between atoms: _169  and  _171
REMARK   67  A    between atoms: _171  and  _172
REMARK   68  A    between atoms: _171  and  _174
REMARK   69  A    between atoms: _177  and  _179
REMARK   70  A    between atoms: _179  and  _180
REMARK   71  A    between atoms: _179  and  _182
REMARK   72  A    between atoms: _182  and  _183
REMARK   73  A    between atoms: _183  and  _184
REMARK   74  A    between atoms: _189  and  _191
REMARK   75  A    between atoms: _191  and  _192
REMARK   76  A    between atoms: _191  and  _194
REMARK   77  A    between atoms: _194  and  _195
REMARK   78  A    between atoms: _195  and  _196
REMARK   79  A    between atoms: _199  and  _201
REMARK   80  A    between atoms: _201  and  _202
REMARK   81  A    between atoms: _201  and  _204
REMARK   82  A    between atoms: _204  and  _205
REMARK   83  A    between atoms: _208  and  _210
REMARK   84  A    between atoms: _210  and  _211
REMARK   85  A    between atoms: _210  and  _213
REMARK   86  A    between atoms: _213  and  _214
REMARK   87  A    between atoms: _217  and  _219
REMARK   88  A    between atoms: _219  and  _220
REMARK   89  A    between atoms: _219  and  _222
REMARK   90  A    between atoms: _222  and  _223
REMARK   91  A    between atoms: _228  and  _229
REMARK   92  A    between atoms: _231  and  _233
REMARK   93  A    between atoms: _233  and  _234
REMARK   94  A    between atoms: _233  and  _236
REMARK   95  A    between atoms: _239  and  _241
REMARK   96  A    between atoms: _241  and  _242
REMARK   97  A    between atoms: _241  and  _244
REMARK   98  A    between atoms: _244  and  _245
REMARK   99  A    between atoms: _250  and  _252
REMARK  100  A    between atoms: _252  and  _253
REMARK  101  A    between atoms: _252  and  _255
REMARK  102  A    between atoms: _255  and  _256
REMARK  103  A    between atoms: _256  and  _257
REMARK  104  A    between atoms: _260  and  _262
REMARK  105  A    between atoms: _262  and  _263
REMARK  106  A    between atoms: _262  and  _265
REMARK  107  A    between atoms: _265  and  _266
REMARK  108  A    between atoms: _269  and  _271
REMARK  109  A    between atoms: _271  and  _272
REMARK  110  A    between atoms: _271  and  _274
REMARK  111  A    between atoms: _274  and  _275
REMARK  112  A    between atoms: _278  and  _280
REMARK  113  A    between atoms: _280  and  _281
REMARK  114  A    between atoms: _280  and  _283
REMARK  115  A    between atoms: _283  and  _284
REMARK  116  A    between atoms: _289  and  _290
REMARK  117  A    between atoms: _292  and  _294
REMARK  118  A    between atoms: _294  and  _295
REMARK  119  A    between atoms: _294  and  _297
REMARK  120  A    between atoms: _297  and  _298
REMARK  121  A    between atoms: _301  and  _303
REMARK  122  A    between atoms: _303  and  _304
REMARK  123  A    between atoms: _303  and  _306
REMARK  124  A    between atoms: _306  and  _307
REMARK  125  A    between atoms: _307  and  _308
REMARK  126  A    between atoms: _310  and  _312
REMARK  127  A    between atoms: _312  and  _313
REMARK  128  A    between atoms: _312  and  _315
REMARK  129  A    between atoms: _315  and  _316
REMARK  130  A    between atoms: _319  and  _321
REMARK  131  A    between atoms: _321  and  _322
REMARK  132  A    between atoms: _325  and  _327
REMARK  133  A    between atoms: _327  and  _328
REMARK  134  A    between atoms: _327  and  _330
REMARK  135  A    between atoms: _330  and  _331
REMARK  136  A    between atoms: _333  and  _335
REMARK  137  A    between atoms: _335  and  _336
REMARK  138  A    between atoms: _335  and  _338
REMARK  139  A    between atoms: _338  and  _339
REMARK  140  A    between atoms: _342  and  _344
REMARK  141  A    between atoms: _344  and  _345
REMARK  142  A    between atoms: _344  and  _347
REMARK  143  A    between atoms: _347  and  _348
REMARK  144  A    between atoms: _348  and  _349
REMARK  145  A    between atoms: _351  and  _353
REMARK  146  A    between atoms: _353  and  _354
REMARK  147  A    between atoms: _356  and  _358
REMARK  148  A    between atoms: _358  and  _359
REMARK  149  A    between atoms: _358  and  _361
REMARK  150  A    between atoms: _364  and  _366
REMARK  151  A    between atoms: _366  and  _367
REMARK  152  A    between atoms: _366  and  _369
REMARK  153  A    between atoms: _369  and  _370
REMARK  154  A    between atoms: _373  and  _375
REMARK  155  A    between atoms: _375  and  _376
REMARK  156  A    between atoms: _375  and  _378
REMARK  157  A    between atoms: _378  and  _379
REMARK  158  A    between atoms: _382  and  _384
REMARK  159  A    between atoms: _384  and  _385
REMARK  160  A    between atoms: _384  and  _387
REMARK  161  A    between atoms: _387  and  _388
REMARK  162  A    between atoms: _390  and  _392
REMARK  163  A    between atoms: _392  and  _393
REMARK  164  A    between atoms: _392  and  _395
REMARK  165  A    between atoms: _395  and  _396
REMARK  166  A    between atoms: _396  and  _397
REMARK  167  A    between atoms: _400  and  _402
REMARK  168  A    between atoms: _402  and  _403
REMARK  169  A    between atoms: _405  and  _407
REMARK  170  A    between atoms: _407  and  _408
REMARK  171  A    between atoms: _407  and  _410
REMARK  172  A    between atoms: _410  and  _411
REMARK  173  A    between atoms: _417  and  _419
REMARK  174  A    between atoms: _419  and  _420
REMARK  175  A    between atoms: _419  and  _422
REMARK  176  A    between atoms: _422  and  _423
REMARK  177  A    between atoms: _423  and  _424
REMARK  178  A    between atoms: _426  and  _428
REMARK  179  A    between atoms: _428  and  _429
REMARK  180  A    between atoms: _428  and  _431
REMARK  181  A    between atoms: _431  and  _432
REMARK  182  A    between atoms: _435  and  _437
REMARK  183  A    between atoms: _437  and  _438
REMARK  184  A    between atoms: _437  and  _440
REMARK  185  A    between atoms: _440  and  _441
REMARK  186  A    between atoms: _447  and  _449
REMARK  187  A    between atoms: _449  and  _450
REMARK  188  A    between atoms: _449  and  _452
REMARK  189  A    between atoms: _452  and  _453
REMARK  190  A    between atoms: _456  and  _458
REMARK  191  A    between atoms: _458  and  _459
REMARK  192  A    between atoms: _458  and  _461
REMARK  193  A    between atoms: _461  and  _462
REMARK  194  A    between atoms: _465  and  _467
REMARK  195  A    between atoms: _467  and  _468
REMARK  196  A    between atoms: _467  and  _470
REMARK  197  A    between atoms: _470  and  _471
REMARK  198  A    between atoms: _477  and  _479
REMARK  199  A    between atoms: _479  and  _480
REMARK  200  A    between atoms: _479  and  _482
REMARK  201  A    between atoms: _482  and  _483
REMARK  202  A    between atoms: _483  and  _484
REMARK  203  A    between atoms: _486  and  _488
REMARK  204  A    between atoms: _488  and  _489
REMARK  205  A    between atoms: _488  and  _491
REMARK  206  A    between atoms: _491  and  _492
REMARK  207  A    between atoms: _492  and  _493
REMARK  208  A    between atoms: _493  and  _494
REMARK  209  A    between atoms: _494  and  _495
REMARK  210  A    between atoms: _499  and  _501
REMARK  211  A    between atoms: _501  and  _502
REMARK  212  A    between atoms: _501  and  _504
REMARK  213  A    between atoms: _504  and  _505
REMARK  214  A    between atoms: _511  and  _513
REMARK  215  A    between atoms: _513  and  _514
REMARK  216  A    between atoms: _513  and  _516
REMARK  217  A    between atoms: _516  and  _517
REMARK  218  A    between atoms: _520  and  _522
REMARK  219  A    between atoms: _522  and  _523
REMARK  220  A    between atoms: _522  and  _525
REMARK  221  A    between atoms: _528  and  _530
REMARK  222  A    between atoms: _530  and  _531
REMARK  223  A    between atoms: _530  and  _533
REMARK  224  A    between atoms: _533  and  _534
REMARK  225  A    between atoms: _539  and  _541
REMARK  226  A    between atoms: _541  and  _542
REMARK  227  A    between atoms: _541  and  _544
REMARK  228  A    between atoms: _547  and  _549
REMARK  229  A    between atoms: _549  and  _550
REMARK  230  A    between atoms: _549  and  _552
REMARK  231  A    between atoms: _552  and  _553
REMARK  232  A    between atoms: _556  and  _558
REMARK  233  A    between atoms: _558  and  _559
REMARK  234  A    between atoms: _558  and  _561
REMARK  235  A    between atoms: _561  and  _562
REMARK  236  A    between atoms: _565  and  _567
REMARK  237  A    between atoms: _567  and  _568
REMARK  238  A    between atoms: _567  and  _570
REMARK  239  A    between atoms: _570  and  _571
REMARK  240  A    between atoms: _571  and  _572
REMARK  241  A    between atoms: _574  and  _576
REMARK  242  A    between atoms: _576  and  _577
REMARK  243  A    between atoms: _576  and  _579
REMARK  244  A    between atoms: _579  and  _580
REMARK  245  A    between atoms: _582  and  _584
REMARK  246  A    between atoms: _584  and  _585
REMARK  247  A    between atoms: _584  and  _587
REMARK  248  A    between atoms: _587  and  _588
REMARK  249  A    between atoms: _591  and  _593
REMARK  250  A    between atoms: _593  and  _594
REMARK  251  A    between atoms: _593  and  _596
REMARK  252  A    between atoms: _596  and  _597
REMARK  253  A    between atoms: _602  and  _604
REMARK  254  A    between atoms: _604  and  _605
REMARK  255  A    between atoms: _604  and  _607
REMARK  256  A    between atoms: _607  and  _608
REMARK  257  A    between atoms: _611  and  _613
REMARK  258  A    between atoms: _613  and  _614
REMARK  259  A    between atoms: _613  and  _616
REMARK  260  A    between atoms: _616  and  _617
REMARK  261  A    between atoms: _620  and  _622
REMARK  262  A    between atoms: _622  and  _623
REMARK  263  A    between atoms: _622  and  _625
REMARK  264  A    between atoms: _625  and  _626
REMARK  265  A    between atoms: _626  and  _627
REMARK  266  A    between atoms: _632  and  _634
REMARK  267  A    between atoms: _634  and  _635
REMARK  268  A    between atoms: _634  and  _637
REMARK  269  A    between atoms: _637  and  _638
REMARK  270  A    between atoms: _641  and  _643
REMARK  271  A    between atoms: _643  and  _644
REMARK  272  A    between atoms: _643  and  _646
REMARK  273  A    between atoms: _646  and  _647
REMARK  274  A    between atoms: _652  and  _653
REMARK                            x       y       z     vdW  Elec       q    Type
REMARK                         _______ _______ _______ _____ _____    ______ ____
ROOT
ATOM      1  CA  ILE A   1       7.651   4.746  21.225  0.00  0.00    +0.133 C 
ENDROOT
BRANCH   1   2
ATOM      2  N   ILE A   1       7.327   3.473  20.601  0.00  0.00    -0.239 NA
ATOM      3  H   ILE A   1       6.765   3.455  19.726  0.00  0.00    +0.142 HD
ENDBRANCH   1   2
BRANCH   1   4
ATOM      4  C   ILE A   1       7.049   4.829  22.629  0.00  0.00    +0.224 C 
ATOM      5  O   ILE A   1       7.646   5.400  23.542  0.00  0.00    -0.287 OA
ENDBRANCH   1   4
BRANCH   1   6
ATOM      6  CB  ILE A   1       7.130   5.925  20.373  0.00  0.00    +0.023 C 
ATOM      7  CG2 ILE A   1       7.100   7.193  21.208  0.00  0.00    +0.002 C 
BRANCH   6   8
ATOM      8  CG1 ILE A   1       8.011   6.095  19.133  0.00  0.00    +0.002 C 
ATOM      9  CD1 ILE A   1       7.297   6.778  17.971  0.00  0.00    +0.000 C 
ENDBRANCH   6   8
ENDBRANCH   1   6
TORSDOF 4
REMARK  Name = ../refined-set-2016/2i4j/2i4j_pocket.pdb
REMARK  274 active torsions:
REMARK  status: ('A' for Active; 'I' for Inactive)
REMARK    1  A    between atoms: _1  and  _3
REMARK    2  A    between atoms: _3  and  _4
REMARK    3  A    between atoms: _3  and  _6
REMARK    4  A    between atoms: _6  and  _7
REMARK    5  A    between atoms: _12  and  _13
REMARK    6  A    between atoms: _15  and  _17
REMARK    7  A    between atoms: _17  and  _18
REMARK    8  A    between atoms: _17  and  _20
REMARK    9  A    between atoms: _20  and  _21
REMARK   10  A    between atoms: _23  and  _25
REMARK   11  A    between atoms: _25  and  _26
REMARK   12  A    between atoms: _25  and  _28
REMARK   13  A    between atoms: _28  and  _29
REMARK   14  A    between atoms: _36  and  _37
REMARK   15  A    between atoms: _42  and  _44
REMARK   16  A    between atoms: _44  and  _45
REMARK   17  A    between atoms: _44  and  _47
REMARK   18  A    between atoms: _47  and  _48
REMARK   19  A    between atoms: _51  and  _53
REMARK   20  A    between atoms: _53  and  _54
REMARK   21  A    between atoms: _53  and  _56
REMARK   22  A    between atoms: _56  and  _57
REMARK   23  A    between atoms: _60  and  _62
REMARK   24  A    between atoms: _62  and  _63
REMARK   25  A    between atoms: _62  and  _65
REMARK   26  A    between atoms: _65  and  _66
REMARK   27  A    between atoms: _72  and  _74
REMARK   28  A    between atoms: _74  and  _75
REMARK   29  A    between atoms: _74  and  _77
REMARK   30  A    between atoms: _77  and  _78
REMARK   31  A    between atoms: _78  and  _79
REMARK   32  A    between atoms: _84  and  _86
REMARK   33  A    between atoms: _86  and  _87
REMARK   34  A    between atoms: _89  and  _91
REMARK   35  A    between atoms: _91  and  _92
REMARK   36  A    between atoms: _91  and  _94
REMARK   37  A    between atoms: _96  and  _98
REMARK   38  A    between atoms: _98  and  _99
REMARK   39  A    between atoms: _98  and  _101
REMARK   40  A    between atoms: _101  and  _102
REMARK   41  A    between atoms: _102  and  _103
REMARK   42  A    between atoms: _108  and  _110
REMARK   43  A    between atoms: _110  and  _111
REMARK   44  A    between atoms: _110  and  _113
REMARK   45  A    between atoms: _113  and  _114
REMARK   46  A    between atoms: _120  and  _122
REMARK   47  A    between atoms: _122  and  _123
REMARK   48  A    between atoms: _122  and  _125
REMARK   49  A    between atoms: _125  and  _126
REMARK   50  A    between atoms: _126  and  _127
REMARK   51  A    between atoms: _127  and  _128
REMARK   52  A    between atoms: _137  and  _139
REMARK   53  A    between atoms: _139  and  _140
REMARK   54  A    between atoms: _139  and  _142
REMARK   55  A    between atoms: _142  and  _143
REMARK   56  A    between atoms: _145  and  _147
REMARK   57  A    between atoms: _147  and  _148
REMARK   58  A    between atoms: _147  and  _150
REMARK   59  A    between atoms: _153  and  _155
REMARK   60  A    between atoms: _155  and  _156
REMARK   61  A    between atoms: _155  and  _158
REMARK   62  A    between atoms: _158  and  _159
REMARK   63  A    between atoms: _159  and  _160
REMARK   64  A    between atoms: _163  and  _165
REMARK   65  A    between atoms: _165  and  _166
REMARK   66  A    between atoms: _169  and  _171
REMARK   67  A    between atoms: _171  and  _172
REMARK   68  A    between atoms: _171  and  _174
REMARK   69  A    between atoms: _177  and  _179
REMARK   70  A    between atoms: _179  and  _180
REMARK   71  A    between atoms: _179  and  _182
REMARK   72  A    between atoms: _182  and  _183
REMARK   73  A    between atoms: _183  and  _184
REMARK   74  A    between atoms: _189  and  _191
REMARK   75  A    between atoms: _191  and  _192
REMARK   76  A    between atoms: _191  and  _194
REMARK   77  A    between atoms: _194  and  _195
REMARK   78  A    between atoms: _195  and  _196
REMARK   79  A    between atoms: _199  and  _201
REMARK   80  A    between atoms: _201  and  _202
REMARK   81  A    between atoms: _201  and  _204
REMARK   82  A    between atoms: _204  and  _205
REMARK   83  A    between atoms: _208  and  _210
REMARK   84  A    between atoms: _210  and  _211
REMARK   85  A    between atoms: _210  and  _213
REMARK   86  A    between atoms: _213  and  _214
REMARK   87  A    between atoms: _217  and  _219
REMARK   88  A    between atoms: _219  and  _220
REMARK   89  A    between atoms: _219  and  _222
REMARK   90  A    between atoms: _222  and  _223
REMARK   91  A    between atoms: _228  and  _229
REMARK   92  A    between atoms: _231  and  _233
REMARK   93  A    between atoms: _233  and  _234
REMARK   94  A    between atoms: _233  and  _236
REMARK   95  A    between atoms: _239  and  _241
REMARK   96  A    between atoms: _241  and  _242
REMARK   97  A    between atoms: _241  and  _244
REMARK   98  A    between atoms: _244  and  _245
REMARK   99  A    between atoms: _250  and  _252
REMARK  100  A    between atoms: _252  and  _253
REMARK  101  A    between atoms: _252  and  _255
REMARK  102  A    between atoms: _255  and  _256
REMARK  103  A    between atoms: _256  and  _257
REMARK  104  A    between atoms: _260  and  _262
REMARK  105  A    between atoms: _262  and  _263
REMARK  106  A    between atoms: _262  and  _265
REMARK  107  A    between atoms: _265  and  _266
REMARK  108  A    between atoms: _269  and  _271
REMARK  109  A    between atoms: _271  and  _272
REMARK  110  A    between atoms: _271  and  _274
REMARK  111  A    between atoms: _274  and  _275
REMARK  112  A    between atoms: _278  and  _280
REMARK  113  A    between atoms: _280  and  _281
REMARK  114  A    between atoms: _280  and  _283
REMARK  115  A    between atoms: _283  and  _284
REMARK  116  A    between atoms: _289  and  _290
REMARK  117  A    between atoms: _292  and  _294
REMARK  118  A    between atoms: _294  and  _295
REMARK  119  A    between atoms: _294  and  _297
REMARK  120  A    between atoms: _297  and  _298
REMARK  121  A    between atoms: _301  and  _303
REMARK  122  A    between atoms: _303  and  _304
REMARK  123  A    between atoms: _303  and  _306
REMARK  124  A    between atoms: _306  and  _307
REMARK  125  A    between atoms: _307  and  _308
REMARK  126  A    between atoms: _310  and  _312
REMARK  127  A    between atoms: _312  and  _313
REMARK  128  A    between atoms: _312  and  _315
REMARK  129  A    between atoms: _315  and  _316
REMARK  130  A    between atoms: _319  and  _321
REMARK  131  A    between atoms: _321  and  _322
REMARK  132  A    between atoms: _325  and  _327
REMARK  133  A    between atoms: _327  and  _328
REMARK  134  A    between atoms: _327  and  _330
REMARK  135  A    between atoms: _330  and  _331
REMARK  136  A    between atoms: _333  and  _335
REMARK  137  A    between atoms: _335  and  _336
REMARK  138  A    between atoms: _335  and  _338
REMARK  139  A    between atoms: _338  and  _339
REMARK  140  A    between atoms: _342  and  _344
REMARK  141  A    between atoms: _344  and  _345
REMARK  142  A    between atoms: _344  and  _347
REMARK  143  A    between atoms: _347  and  _348
REMARK  144  A    between atoms: _348  and  _349
REMARK  145  A    between atoms: _351  and  _353
REMARK  146  A    between atoms: _353  and  _354
REMARK  147  A    between atoms: _356  and  _358
REMARK  148  A    between atoms: _358  and  _359
REMARK  149  A    between atoms: _358  and  _361
REMARK  150  A    between atoms: _364  and  _366
REMARK  151  A    between atoms: _366  and  _367
REMARK  152  A    between atoms: _366  and  _369
REMARK  153  A    between atoms: _369  and  _370
REMARK  154  A    between atoms: _373  and  _375
REMARK  155  A    between atoms: _375  and  _376
REMARK  156  A    between atoms: _375  and  _378
REMARK  157  A    between atoms: _378  and  _379
REMARK  158  A    between atoms: _382  and  _384
REMARK  159  A    between atoms: _384  and  _385
REMARK  160  A    between atoms: _384  and  _387
REMARK  161  A    between atoms: _387  and  _388
REMARK  162  A    between atoms: _390  and  _392
REMARK  163  A    between atoms: _392  and  _393
REMARK  164  A    between atoms: _392  and  _395
REMARK  165  A    between atoms: _395  and  _396
REMARK  166  A    between atoms: _396  and  _397
REMARK  167  A    between atoms: _400  and  _402
REMARK  168  A    between atoms: _402  and  _403
REMARK  169  A    between atoms: _405  and  _407
REMARK  170  A    between atoms: _407  and  _408
REMARK  171  A    between atoms: _407  and  _410
REMARK  172  A    between atoms: _410  and  _411
REMARK  173  A    between atoms: _417  and  _419
REMARK  174  A    between atoms: _419  and  _420
REMARK  175  A    between atoms: _419  and  _422
REMARK  176  A    between atoms: _422  and  _423
REMARK  177  A    between atoms: _423  and  _424
REMARK  178  A    between atoms: _426  and  _428
REMARK  179  A    between atoms: _428  and  _429
REMARK  180  A    between atoms: _428  and  _431
REMARK  181  A    between atoms: _431  and  _432
REMARK  182  A    between atoms: _435  and  _437
REMARK  183  A    between atoms: _437  and  _438
REMARK  184  A    between atoms: _437  and  _440
REMARK  185  A    between atoms: _440  and  _441
REMARK  186  A    between atoms: _447  and  _449
REMARK  187  A    between atoms: _449  and  _450
REMARK  188  A    between atoms: _449  and  _452
REMARK  189  A    between atoms: _452  and  _453
REMARK  190  A    between atoms: _456  and  _458
REMARK  191  A    between atoms: _458  and  _459
REMARK  192  A    between atoms: _458  and  _461
REMARK  193  A    between atoms: _461  and  _462
REMARK  194  A    between atoms: _465  and  _467
REMARK  195  A    between atoms: _467  and  _468
REMARK  196  A    between atoms: _467  and  _470
REMARK  197  A    between atoms: _470  and  _471
REMARK  198  A    between atoms: _477  and  _479
REMARK  199  A    between atoms: _479  and  _480
REMARK  200  A    between atoms: _479  and  _482
REMARK  201  A    between atoms: _482  and  _483
REMARK  202  A    between atoms: _483  and  _484
REMARK  203  A    between atoms: _486  and  _488
REMARK  204  A    between atoms: _488  and  _489
REMARK  205  A    between atoms: _488  and  _491
REMARK  206  A    between atoms: _491  and  _492
REMARK  207  A    between atoms: _492  and  _493
REMARK  208  A    between atoms: _493  and  _494
REMARK  209  A    between atoms: _494  and  _495
REMARK  210  A    between atoms: _499  and  _501
REMARK  211  A    between atoms: _501  and  _502
REMARK  212  A    between atoms: _501  and  _504
REMARK  213  A    between atoms: _504  and  _505
REMARK  214  A    between atoms: _511  and  _513
REMARK  215  A    between atoms: _513  and  _514
REMARK  216  A    between atoms: _513  and  _516
REMARK  217  A    between atoms: _516  and  _517
REMARK  218  A    between atoms: _520  and  _522
REMARK  219  A    between atoms: _522  and  _523
REMARK  220  A    between atoms: _522  and  _525
REMARK  221  A    between atoms: _528  and  _530
REMARK  222  A    between atoms: _530  and  _531
REMARK  223  A    between atoms: _530  and  _533
REMARK  224  A    between atoms: _533  and  _534
REMARK  225  A    between atoms: _539  and  _541
REMARK  226  A    between atoms: _541  and  _542
REMARK  227  A    between atoms: _541  and  _544
REMARK  228  A    between atoms: _547  and  _549
REMARK  229  A    between atoms: _549  and  _550
REMARK  230  A    between atoms: _549  and  _552
REMARK  231  A    between atoms: _552  and  _553
REMARK  232  A    between atoms: _556  and  _558
REMARK  233  A    between atoms: _558  and  _559
REMARK  234  A    between atoms: _558  and  _561
REMARK  235  A    between atoms: _561  and  _562
REMARK  236  A    between atoms: _565  and  _567
REMARK  237  A    between atoms: _567  and  _568
REMARK  238  A    between atoms: _567  and  _570
REMARK  239  A    between atoms: _570  and  _571
REMARK  240  A    between atoms: _571  and  _572
REMARK  241  A    between atoms: _574  and  _576
REMARK  242  A    between atoms: _576  and  _577
REMARK  243  A    between atoms: _576  and  _579
REMARK  244  A    between atoms: _579  and  _580
REMARK  245  A    between atoms: _582  and  _584
REMARK  246  A    between atoms: _584  and  _585
REMARK  247  A    between atoms: _584  and  _587
REMARK  248  A    between atoms: _587  and  _588
REMARK  249  A    between atoms: _591  and  _593
REMARK  250  A    between atoms: _593  and  _594
REMARK  251  A    between atoms: _593  and  _596
REMARK  252  A    between atoms: _596  and  _597
REMARK  253  A    between atoms: _602  and  _604
REMARK  254  A    between atoms: _604  and  _605
REMARK  255  A    between atoms: _604  and  _607
REMARK  256  A    between atoms: _607  and  _608
REMARK  257  A    between atoms: _611  and  _613
REMARK  258  A    between atoms: _613  and  _614
REMARK  259  A    between atoms: _613  and  _616
REMARK  260  A    between atoms: _616  and  _617
REMARK  261  A    between atoms: _620  and  _622
REMARK  262  A    between atoms: _622  and  _623
REMARK  263  A    between atoms: _622  and  _625
REMARK  264  A    between atoms: _625  and  _626
REMARK  265  A    between atoms: _626  and  _627
REMARK  266  A    between atoms: _632  and  _634
REMARK  267  A    between atoms: _634  and  _635
REMARK  268  A    between atoms: _634  and  _637
REMARK  269  A    between atoms: _637  and  _638
REMARK  270  A    between atoms: _641  and  _643
REMARK  271  A    between atoms: _643  and  _644
REMARK  272  A    between atoms: _643  and  _646
REMARK  273  A    between atoms: _646  and  _647
REMARK  274  A    between atoms: _652  and  _653
REMARK                            x       y       z     vdW  Elec       q    Type
REMARK                         _______ _______ _______ _____ _____    ______ ____
ROOT
ATOM      1  CA  VAL A   1      22.129   9.776  22.761  0.00  0.00    +0.133 C 
ENDROOT
BRANCH   1   2
ATOM      2  CB  VAL A   1      21.111   9.395  23.852  0.00  0.00    +0.023 C 
ATOM      3  CG2 VAL A   1      21.011  10.510  24.881  0.00  0.00    +0.002 C 
ATOM      4  CG1 VAL A   1      19.747   9.132  23.235  0.00  0.00    +0.002 C 
ENDBRANCH   1   2
BRANCH   1   5
ATOM      5  N   VAL A   1      22.339   8.677  21.823  0.00  0.00    -0.239 NA
ATOM      6  H   VAL A   1      21.828   7.784  21.972  0.00  0.00    +0.142 HD
ENDBRANCH   1   5
BRANCH   1   7
ATOM      7  C   VAL A   1      23.439  10.162  23.449  0.00  0.00    +0.224 C 
ATOM      8  O   VAL A   1      23.873  11.319  23.394  0.00  0.00    -0.287 OA
ENDBRANCH   1   7
TORSDOF 3
REMARK  Name = ../refined-set-2016/2i4j/2i4j_pocket.pdb
REMARK  274 active torsions:
REMARK  status: ('A' for Active; 'I' for Inactive)
REMARK    1  A    between atoms: _1  and  _3
REMARK    2  A    between atoms: _3  and  _4
REMARK    3  A    between atoms: _3  and  _6
REMARK    4  A    between atoms: _6  and  _7
REMARK    5  A    between atoms: _12  and  _13
REMARK    6  A    between atoms: _15  and  _17
REMARK    7  A    between atoms: _17  and  _18
REMARK    8  A    between atoms: _17  and  _20
REMARK    9  A    between atoms: _20  and  _21
REMARK   10  A    between atoms: _23  and  _25
REMARK   11  A    between atoms: _25  and  _26
REMARK   12  A    between atoms: _25  and  _28
REMARK   13  A    between atoms: _28  and  _29
REMARK   14  A    between atoms: _36  and  _37
REMARK   15  A    between atoms: _42  and  _44
REMARK   16  A    between atoms: _44  and  _45
REMARK   17  A    between atoms: _44  and  _47
REMARK   18  A    between atoms: _47  and  _48
REMARK   19  A    between atoms: _51  and  _53
REMARK   20  A    between atoms: _53  and  _54
REMARK   21  A    between atoms: _53  and  _56
REMARK   22  A    between atoms: _56  and  _57
REMARK   23  A    between atoms: _60  and  _62
REMARK   24  A    between atoms: _62  and  _63
REMARK   25  A    between atoms: _62  and  _65
REMARK   26  A    between atoms: _65  and  _66
REMARK   27  A    between atoms: _72  and  _74
REMARK   28  A    between atoms: _74  and  _75
REMARK   29  A    between atoms: _74  and  _77
REMARK   30  A    between atoms: _77  and  _78
REMARK   31  A    between atoms: _78  and  _79
REMARK   32  A    between atoms: _84  and  _86
REMARK   33  A    between atoms: _86  and  _87
REMARK   34  A    between atoms: _89  and  _91
REMARK   35  A    between atoms: _91  and  _92
REMARK   36  A    between atoms: _91  and  _94
REMARK   37  A    between atoms: _96  and  _98
REMARK   38  A    between atoms: _98  and  _99
REMARK   39  A    between atoms: _98  and  _101
REMARK   40  A    between atoms: _101  and  _102
REMARK   41  A    between atoms: _102  and  _103
REMARK   42  A    between atoms: _108  and  _110
REMARK   43  A    between atoms: _110  and  _111
REMARK   44  A    between atoms: _110  and  _113
REMARK   45  A    between atoms: _113  and  _114
REMARK   46  A    between atoms: _120  and  _122
REMARK   47  A    between atoms: _122  and  _123
REMARK   48  A    between atoms: _122  and  _125
REMARK   49  A    between atoms: _125  and  _126
REMARK   50  A    between atoms: _126  and  _127
REMARK   51  A    between atoms: _127  and  _128
REMARK   52  A    between atoms: _137  and  _139
REMARK   53  A    between atoms: _139  and  _140
REMARK   54  A    between atoms: _139  and  _142
REMARK   55  A    between atoms: _142  and  _143
REMARK   56  A    between atoms: _145  and  _147
REMARK   57  A    between atoms: _147  and  _148
REMARK   58  A    between atoms: _147  and  _150
REMARK   59  A    between atoms: _153  and  _155
REMARK   60  A    between atoms: _155  and  _156
REMARK   61  A    between atoms: _155  and  _158
REMARK   62  A    between atoms: _158  and  _159
REMARK   63  A    between atoms: _159  and  _160
REMARK   64  A    between atoms: _163  and  _165
REMARK   65  A    between atoms: _165  and  _166
REMARK   66  A    between atoms: _169  and  _171
REMARK   67  A    between atoms: _171  and  _172
REMARK   68  A    between atoms: _171  and  _174
REMARK   69  A    between atoms: _177  and  _179
REMARK   70  A    between atoms: _179  and  _180
REMARK   71  A    between atoms: _179  and  _182
REMARK   72  A    between atoms: _182  and  _183
REMARK   73  A    between atoms: _183  and  _184
REMARK   74  A    between atoms: _189  and  _191
REMARK   75  A    between atoms: _191  and  _192
REMARK   76  A    between atoms: _191  and  _194
REMARK   77  A    between atoms: _194  and  _195
REMARK   78  A    between atoms: _195  and  _196
REMARK   79  A    between atoms: _199  and  _201
REMARK   80  A    between atoms: _201  and  _202
REMARK   81  A    between atoms: _201  and  _204
REMARK   82  A    between atoms: _204  and  _205
REMARK   83  A    between atoms: _208  and  _210
REMARK   84  A    between atoms: _210  and  _211
REMARK   85  A    between atoms: _210  and  _213
REMARK   86  A    between atoms: _213  and  _214
REMARK   87  A    between atoms: _217  and  _219
REMARK   88  A    between atoms: _219  and  _220
REMARK   89  A    between atoms: _219  and  _222
REMARK   90  A    between atoms: _222  and  _223
REMARK   91  A    between atoms: _228  and  _229
REMARK   92  A    between atoms: _231  and  _233
REMARK   93  A    between atoms: _233  and  _234
REMARK   94  A    between atoms: _233  and  _236
REMARK   95  A    between atoms: _239  and  _241
REMARK   96  A    between atoms: _241  and  _242
REMARK   97  A    between atoms: _241  and  _244
REMARK   98  A    between atoms: _244  and  _245
REMARK   99  A    between atoms: _250  and  _252
REMARK  100  A    between atoms: _252  and  _253
REMARK  101  A    between atoms: _252  and  _255
REMARK  102  A    between atoms: _255  and  _256
REMARK  103  A    between atoms: _256  and  _257
REMARK  104  A    between atoms: _260  and  _262
REMARK  105  A    between atoms: _262  and  _263
REMARK  106  A    between atoms: _262  and  _265
REMARK  107  A    between atoms: _265  and  _266
REMARK  108  A    between atoms: _269  and  _271
REMARK  109  A    between atoms: _271  and  _272
REMARK  110  A    between atoms: _271  and  _274
REMARK  111  A    between atoms: _274  and  _275
REMARK  112  A    between atoms: _278  and  _280
REMARK  113  A    between atoms: _280  and  _281
REMARK  114  A    between atoms: _280  and  _283
REMARK  115  A    between atoms: _283  and  _284
REMARK  116  A    between atoms: _289  and  _290
REMARK  117  A    between atoms: _292  and  _294
REMARK  118  A    between atoms: _294  and  _295
REMARK  119  A    between atoms: _294  and  _297
REMARK  120  A    between atoms: _297  and  _298
REMARK  121  A    between atoms: _301  and  _303
REMARK  122  A    between atoms: _303  and  _304
REMARK  123  A    between atoms: _303  and  _306
REMARK  124  A    between atoms: _306  and  _307
REMARK  125  A    between atoms: _307  and  _308
REMARK  126  A    between atoms: _310  and  _312
REMARK  127  A    between atoms: _312  and  _313
REMARK  128  A    between atoms: _312  and  _315
REMARK  129  A    between atoms: _315  and  _316
REMARK  130  A    between atoms: _319  and  _321
REMARK  131  A    between atoms: _321  and  _322
REMARK  132  A    between atoms: _325  and  _327
REMARK  133  A    between atoms: _327  and  _328
REMARK  134  A    between atoms: _327  and  _330
REMARK  135  A    between atoms: _330  and  _331
REMARK  136  A    between atoms: _333  and  _335
REMARK  137  A    between atoms: _335  and  _336
REMARK  138  A    between atoms: _335  and  _338
REMARK  139  A    between atoms: _338  and  _339
REMARK  140  A    between atoms: _342  and  _344
REMARK  141  A    between atoms: _344  and  _345
REMARK  142  A    between atoms: _344  and  _347
REMARK  143  A    between atoms: _347  and  _348
REMARK  144  A    between atoms: _348  and  _349
REMARK  145  A    between atoms: _351  and  _353
REMARK  146  A    between atoms: _353  and  _354
REMARK  147  A    between atoms: _356  and  _358
REMARK  148  A    between atoms: _358  and  _359
REMARK  149  A    between atoms: _358  and  _361
REMARK  150  A    between atoms: _364  and  _366
REMARK  151  A    between atoms: _366  and  _367
REMARK  152  A    between atoms: _366  and  _369
REMARK  153  A    between atoms: _369  and  _370
REMARK  154  A    between atoms: _373  and  _375
REMARK  155  A    between atoms: _375  and  _376
REMARK  156  A    between atoms: _375  and  _378
REMARK  157  A    between atoms: _378  and  _379
REMARK  158  A    between atoms: _382  and  _384
REMARK  159  A    between atoms: _384  and  _385
REMARK  160  A    between atoms: _384  and  _387
REMARK  161  A    between atoms: _387  and  _388
REMARK  162  A    between atoms: _390  and  _392
REMARK  163  A    between atoms: _392  and  _393
REMARK  164  A    between atoms: _392  and  _395
REMARK  165  A    between atoms: _395  and  _396
REMARK  166  A    between atoms: _396  and  _397
REMARK  167  A    between atoms: _400  and  _402
REMARK  168  A    between atoms: _402  and  _403
REMARK  169  A    between atoms: _405  and  _407
REMARK  170  A    between atoms: _407  and  _408
REMARK  171  A    between atoms: _407  and  _410
REMARK  172  A    between atoms: _410  and  _411
REMARK  173  A    between atoms: _417  and  _419
REMARK  174  A    between atoms: _419  and  _420
REMARK  175  A    between atoms: _419  and  _422
REMARK  176  A    between atoms: _422  and  _423
REMARK  177  A    between atoms: _423  and  _424
REMARK  178  A    between atoms: _426  and  _428
REMARK  179  A    between atoms: _428  and  _429
REMARK  180  A    between atoms: _428  and  _431
REMARK  181  A    between atoms: _431  and  _432
REMARK  182  A    between atoms: _435  and  _437
REMARK  183  A    between atoms: _437  and  _438
REMARK  184  A    between atoms: _437  and  _440
REMARK  185  A    between atoms: _440  and  _441
REMARK  186  A    between atoms: _447  and  _449
REMARK  187  A    between atoms: _449  and  _450
REMARK  188  A    between atoms: _449  and  _452
REMARK  189  A    between atoms: _452  and  _453
REMARK  190  A    between atoms: _456  and  _458
REMARK  191  A    between atoms: _458  and  _459
REMARK  192  A    between atoms: _458  and  _461
REMARK  193  A    between atoms: _461  and  _462
REMARK  194  A    between atoms: _465  and  _467
REMARK  195  A    between atoms: _467  and  _468
REMARK  196  A    between atoms: _467  and  _470
REMARK  197  A    between atoms: _470  and  _471
REMARK  198  A    between atoms: _477  and  _479
REMARK  199  A    between atoms: _479  and  _480
REMARK  200  A    between atoms: _479  and  _482
REMARK  201  A    between atoms: _482  and  _483
REMARK  202  A    between atoms: _483  and  _484
REMARK  203  A    between atoms: _486  and  _488
REMARK  204  A    between atoms: _488  and  _489
REMARK  205  A    between atoms: _488  and  _491
REMARK  206  A    between atoms: _491  and  _492
REMARK  207  A    between atoms: _492  and  _493
REMARK  208  A    between atoms: _493  and  _494
REMARK  209  A    between atoms: _494  and  _495
REMARK  210  A    between atoms: _499  and  _501
REMARK  211  A    between atoms: _501  and  _502
REMARK  212  A    between atoms: _501  and  _504
REMARK  213  A    between atoms: _504  and  _505
REMARK  214  A    between atoms: _511  and  _513
REMARK  215  A    between atoms: _513  and  _514
REMARK  216  A    between atoms: _513  and  _516
REMARK  217  A    between atoms: _516  and  _517
REMARK  218  A    between atoms: _520  and  _522
REMARK  219  A    between atoms: _522  and  _523
REMARK  220  A    between atoms: _522  and  _525
REMARK  221  A    between atoms: _528  and  _530
REMARK  222  A    between atoms: _530  and  _531
REMARK  223  A    between atoms: _530  and  _533
REMARK  224  A    between atoms: _533  and  _534
REMARK  225  A    between atoms: _539  and  _541
REMARK  226  A    between atoms: _541  and  _542
REMARK  227  A    between atoms: _541  and  _544
REMARK  228  A    between atoms: _547  and  _549
REMARK  229  A    between atoms: _549  and  _550
REMARK  230  A    between atoms: _549  and  _552
REMARK  231  A    between atoms: _552  and  _553
REMARK  232  A    between atoms: _556  and  _558
REMARK  233  A    between atoms: _558  and  _559
REMARK  234  A    between atoms: _558  and  _561
REMARK  235  A    between atoms: _561  and  _562
REMARK  236  A    between atoms: _565  and  _567
REMARK  237  A    between atoms: _567  and  _568
REMARK  238  A    between atoms: _567  and  _570
REMARK  239  A    between atoms: _570  and  _571
REMARK  240  A    between atoms: _571  and  _572
REMARK  241  A    between atoms: _574  and  _576
REMARK  242  A    between atoms: _576  and  _577
REMARK  243  A    between atoms: _576  and  _579
REMARK  244  A    between atoms: _579  and  _580
REMARK  245  A    between atoms: _582  and  _584
REMARK  246  A    between atoms: _584  and  _585
REMARK  247  A    between atoms: _584  and  _587
REMARK  248  A    between atoms: _587  and  _588
REMARK  249  A    between atoms: _591  and  _593
REMARK  250  A    between atoms: _593  and  _594
REMARK  251  A    between atoms: _593  and  _596
REMARK  252  A    between atoms: _596  and  _597
REMARK  253  A    between atoms: _602  and  _604
REMARK  254  A    between atoms: _604  and  _605
REMARK  255  A    between atoms: _604  and  _607
REMARK  256  A    between atoms: _607  and  _608
REMARK  257  A    between atoms: _611  and  _613
REMARK  258  A    between atoms: _613  and  _614
REMARK  259  A    between atoms: _613  and  _616
REMARK  260  A    between atoms: _616  and  _617
REMARK  261  A    between atoms: _620  and  _622
REMARK  262  A    between atoms: _622  and  _623
REMARK  263  A    between atoms: _622  and  _625
REMARK  264  A    between atoms: _625  and  _626
REMARK  265  A    between atoms: _626  and  _627
REMARK  266  A    between atoms: _632  and  _634
REMARK  267  A    between atoms: _634  and  _635
REMARK  268  A    between atoms: _634  and  _637
REMARK  269  A    between atoms: _637  and  _638
REMARK  270  A    between atoms: _641  and  _643
REMARK  271  A    between atoms: _643  and  _644
REMARK  272  A    between atoms: _643  and  _646
REMARK  273  A    between atoms: _646  and  _647
REMARK  274  A    between atoms: _652  and  _653
REMARK                            x       y       z     vdW  Elec       q    Type
REMARK                         _______ _______ _______ _____ _____    ______ ____
ROOT
ATOM      1  C   HIS A   1      25.630  14.048  21.850  0.00  0.00    +0.239 C 
ATOM      2  N   VAL A   2      25.395  13.639  23.091  0.00  0.00    -0.298 N 
ATOM      3  H   VAL A   2      25.002  12.688  23.240  0.00  0.00    +0.150 HD
ATOM      4  O   HIS A   1      26.087  15.155  21.588  0.00  0.00    -0.274 OA
ENDROOT
BRANCH   1   5
ATOM      5  CA  HIS A   1      25.293  13.053  20.740  0.00  0.00    +0.151 C 
BRANCH   5   6
ATOM      6  N   HIS A   1      25.770  11.723  21.115  0.00  0.00    -0.238 NA
ATOM      7  H   HIS A   1      25.077  10.956  21.232  0.00  0.00    +0.142 HD
ENDBRANCH   5   6
BRANCH   5   8
ATOM      8  CB  HIS A   1      23.771  13.019  20.522  0.00  0.00    +0.074 C 
BRANCH   8   9
ATOM      9  CG  HIS A   1      23.196  14.309  20.022  0.00  0.00    +0.082 A 
ATOM     10  CD2 HIS A   1      22.555  15.309  20.671  0.00  0.00    +0.115 A 
ATOM     11  NE2 HIS A   1      22.259  16.273  19.739  0.00  0.00    -0.221 NA
ATOM     12  CE1 HIS A   1      22.702  15.878  18.559  0.00  0.00    +0.199 A 
ATOM     13  ND1 HIS A   1      23.272  14.695  18.702  0.00  0.00    -0.227 NA
ENDBRANCH   8   9
ENDBRANCH   5   8
ENDBRANCH   1   5
BRANCH   2  14
ATOM     14  CA  VAL A   2      25.670  14.479  24.253  0.00  0.00    +0.137 C 
BRANCH  14  15
ATOM     15  CB  VAL A   2      25.386  13.709  25.561  0.00  0.00    +0.026 C 
ATOM     16  CG2 VAL A   2      25.972  14.453  26.750  0.00  0.00    +0.002 C 
ATOM     17  CG1 VAL A   2      23.889  13.541  25.746  0.00  0.00    +0.002 C 
ENDBRANCH  14  15
BRANCH  14  18
ATOM     18  C   VAL A   2      27.117  14.979  24.283  0.00  0.00    +0.227 C 
ATOM     19  O   VAL A   2      27.365  16.178  24.394  0.00  0.00    -0.286 OA
ENDBRANCH  14  18
ENDBRANCH   2  14
TORSDOF 7
REMARK  Name = ../refined-set-2016/2i4j/2i4j_pocket.pdb
REMARK  274 active torsions:
REMARK  status: ('A' for Active; 'I' for Inactive)
REMARK    1  A    between atoms: _1  and  _3
REMARK    2  A    between atoms: _3  and  _4
REMARK    3  A    between atoms: _3  and  _6
REMARK    4  A    between atoms: _6  and  _7
REMARK    5  A    between atoms: _12  and  _13
REMARK    6  A    between atoms: _15  and  _17
REMARK    7  A    between atoms: _17  and  _18
REMARK    8  A    between atoms: _17  and  _20
REMARK    9  A    between atoms: _20  and  _21
REMARK   10  A    between atoms: _23  and  _25
REMARK   11  A    between atoms: _25  and  _26
REMARK   12  A    between atoms: _25  and  _28
REMARK   13  A    between atoms: _28  and  _29
REMARK   14  A    between atoms: _36  and  _37
REMARK   15  A    between atoms: _42  and  _44
REMARK   16  A    between atoms: _44  and  _45
REMARK   17  A    between atoms: _44  and  _47
REMARK   18  A    between atoms: _47  and  _48
REMARK   19  A    between atoms: _51  and  _53
REMARK   20  A    between atoms: _53  and  _54
REMARK   21  A    between atoms: _53  and  _56
REMARK   22  A    between atoms: _56  and  _57
REMARK   23  A    between atoms: _60  and  _62
REMARK   24  A    between atoms: _62  and  _63
REMARK   25  A    between atoms: _62  and  _65
REMARK   26  A    between atoms: _65  and  _66
REMARK   27  A    between atoms: _72  and  _74
REMARK   28  A    between atoms: _74  and  _75
REMARK   29  A    between atoms: _74  and  _77
REMARK   30  A    between atoms: _77  and  _78
REMARK   31  A    between atoms: _78  and  _79
REMARK   32  A    between atoms: _84  and  _86
REMARK   33  A    between atoms: _86  and  _87
REMARK   34  A    between atoms: _89  and  _91
REMARK   35  A    between atoms: _91  and  _92
REMARK   36  A    between atoms: _91  and  _94
REMARK   37  A    between atoms: _96  and  _98
REMARK   38  A    between atoms: _98  and  _99
REMARK   39  A    between atoms: _98  and  _101
REMARK   40  A    between atoms: _101  and  _102
REMARK   41  A    between atoms: _102  and  _103
REMARK   42  A    between atoms: _108  and  _110
REMARK   43  A    between atoms: _110  and  _111
REMARK   44  A    between atoms: _110  and  _113
REMARK   45  A    between atoms: _113  and  _114
REMARK   46  A    between atoms: _120  and  _122
REMARK   47  A    between atoms: _122  and  _123
REMARK   48  A    between atoms: _122  and  _125
REMARK   49  A    between atoms: _125  and  _126
REMARK   50  A    between atoms: _126  and  _127
REMARK   51  A    between atoms: _127  and  _128
REMARK   52  A    between atoms: _137  and  _139
REMARK   53  A    between atoms: _139  and  _140
REMARK   54  A    between atoms: _139  and  _142
REMARK   55  A    between atoms: _142  and  _143
REMARK   56  A    between atoms: _145  and  _147
REMARK   57  A    between atoms: _147  and  _148
REMARK   58  A    between atoms: _147  and  _150
REMARK   59  A    between atoms: _153  and  _155
REMARK   60  A    between atoms: _155  and  _156
REMARK   61  A    between atoms: _155  and  _158
REMARK   62  A    between atoms: _158  and  _159
REMARK   63  A    between atoms: _159  and  _160
REMARK   64  A    between atoms: _163  and  _165
REMARK   65  A    between atoms: _165  and  _166
REMARK   66  A    between atoms: _169  and  _171
REMARK   67  A    between atoms: _171  and  _172
REMARK   68  A    between atoms: _171  and  _174
REMARK   69  A    between atoms: _177  and  _179
REMARK   70  A    between atoms: _179  and  _180
REMARK   71  A    between atoms: _179  and  _182
REMARK   72  A    between atoms: _182  and  _183
REMARK   73  A    between atoms: _183  and  _184
REMARK   74  A    between atoms: _189  and  _191
REMARK   75  A    between atoms: _191  and  _192
REMARK   76  A    between atoms: _191  and  _194
REMARK   77  A    between atoms: _194  and  _195
REMARK   78  A    between atoms: _195  and  _196
REMARK   79  A    between atoms: _199  and  _201
REMARK   80  A    between atoms: _201  and  _202
REMARK   81  A    between atoms: _201  and  _204
REMARK   82  A    between atoms: _204  and  _205
REMARK   83  A    between atoms: _208  and  _210
REMARK   84  A    between atoms: _210  and  _211
REMARK   85  A    between atoms: _210  and  _213
REMARK   86  A    between atoms: _213  and  _214
REMARK   87  A    between atoms: _217  and  _219
REMARK   88  A    between atoms: _219  and  _220
REMARK   89  A    between atoms: _219  and  _222
REMARK   90  A    between atoms: _222  and  _223
REMARK   91  A    between atoms: _228  and  _229
REMARK   92  A    between atoms: _231  and  _233
REMARK   93  A    between atoms: _233  and  _234
REMARK   94  A    between atoms: _233  and  _236
REMARK   95  A    between atoms: _239  and  _241
REMARK   96  A    between atoms: _241  and  _242
REMARK   97  A    between atoms: _241  and  _244
REMARK   98  A    between atoms: _244  and  _245
REMARK   99  A    between atoms: _250  and  _252
REMARK  100  A    between atoms: _252  and  _253
REMARK  101  A    between atoms: _252  and  _255
REMARK  102  A    between atoms: _255  and  _256
REMARK  103  A    between atoms: _256  and  _257
REMARK  104  A    between atoms: _260  and  _262
REMARK  105  A    between atoms: _262  and  _263
REMARK  106  A    between atoms: _262  and  _265
REMARK  107  A    between atoms: _265  and  _266
REMARK  108  A    between atoms: _269  and  _271
REMARK  109  A    between atoms: _271  and  _272
REMARK  110  A    between atoms: _271  and  _274
REMARK  111  A    between atoms: _274  and  _275
REMARK  112  A    between atoms: _278  and  _280
REMARK  113  A    between atoms: _280  and  _281
REMARK  114  A    between atoms: _280  and  _283
REMARK  115  A    between atoms: _283  and  _284
REMARK  116  A    between atoms: _289  and  _290
REMARK  117  A    between atoms: _292  and  _294
REMARK  118  A    between atoms: _294  and  _295
REMARK  119  A    between atoms: _294  and  _297
REMARK  120  A    between atoms: _297  and  _298
REMARK  121  A    between atoms: _301  and  _303
REMARK  122  A    between atoms: _303  and  _304
REMARK  123  A    between atoms: _303  and  _306
REMARK  124  A    between atoms: _306  and  _307
REMARK  125  A    between atoms: _307  and  _308
REMARK  126  A    between atoms: _310  and  _312
REMARK  127  A    between atoms: _312  and  _313
REMARK  128  A    between atoms: _312  and  _315
REMARK  129  A    between atoms: _315  and  _316
REMARK  130  A    between atoms: _319  and  _321
REMARK  131  A    between atoms: _321  and  _322
REMARK  132  A    between atoms: _325  and  _327
REMARK  133  A    between atoms: _327  and  _328
REMARK  134  A    between atoms: _327  and  _330
REMARK  135  A    between atoms: _330  and  _331
REMARK  136  A    between atoms: _333  and  _335
REMARK  137  A    between atoms: _335  and  _336
REMARK  138  A    between atoms: _335  and  _338
REMARK  139  A    between atoms: _338  and  _339
REMARK  140  A    between atoms: _342  and  _344
REMARK  141  A    between atoms: _344  and  _345
REMARK  142  A    between atoms: _344  and  _347
REMARK  143  A    between atoms: _347  and  _348
REMARK  144  A    between atoms: _348  and  _349
REMARK  145  A    between atoms: _351  and  _353
REMARK  146  A    between atoms: _353  and  _354
REMARK  147  A    between atoms: _356  and  _358
REMARK  148  A    between atoms: _358  and  _359
REMARK  149  A    between atoms: _358  and  _361
REMARK  150  A    between atoms: _364  and  _366
REMARK  151  A    between atoms: _366  and  _367
REMARK  152  A    between atoms: _366  and  _369
REMARK  153  A    between atoms: _369  and  _370
REMARK  154  A    between atoms: _373  and  _375
REMARK  155  A    between atoms: _375  and  _376
REMARK  156  A    between atoms: _375  and  _378
REMARK  157  A    between atoms: _378  and  _379
REMARK  158  A    between atoms: _382  and  _384
REMARK  159  A    between atoms: _384  and  _385
REMARK  160  A    between atoms: _384  and  _387
REMARK  161  A    between atoms: _387  and  _388
REMARK  162  A    between atoms: _390  and  _392
REMARK  163  A    between atoms: _392  and  _393
REMARK  164  A    between atoms: _392  and  _395
REMARK  165  A    between atoms: _395  and  _396
REMARK  166  A    between atoms: _396  and  _397
REMARK  167  A    between atoms: _400  and  _402
REMARK  168  A    between atoms: _402  and  _403
REMARK  169  A    between atoms: _405  and  _407
REMARK  170  A    between atoms: _407  and  _408
REMARK  171  A    between atoms: _407  and  _410
REMARK  172  A    between atoms: _410  and  _411
REMARK  173  A    between atoms: _417  and  _419
REMARK  174  A    between atoms: _419  and  _420
REMARK  175  A    between atoms: _419  and  _422
REMARK  176  A    between atoms: _422  and  _423
REMARK  177  A    between atoms: _423  and  _424
REMARK  178  A    between atoms: _426  and  _428
REMARK  179  A    between atoms: _428  and  _429
REMARK  180  A    between atoms: _428  and  _431
REMARK  181  A    between atoms: _431  and  _432
REMARK  182  A    between atoms: _435  and  _437
REMARK  183  A    between atoms: _437  and  _438
REMARK  184  A    between atoms: _437  and  _440
REMARK  185  A    between atoms: _440  and  _441
REMARK  186  A    between atoms: _447  and  _449
REMARK  187  A    between atoms: _449  and  _450
REMARK  188  A    between atoms: _449  and  _452
REMARK  189  A    between atoms: _452  and  _453
REMARK  190  A    between atoms: _456  and  _458
REMARK  191  A    between atoms: _458  and  _459
REMARK  192  A    between atoms: _458  and  _461
REMARK  193  A    between atoms: _461  and  _462
REMARK  194  A    between atoms: _465  and  _467
REMARK  195  A    between atoms: _467  and  _468
REMARK  196  A    between atoms: _467  and  _470
REMARK  197  A    between atoms: _470  and  _471
REMARK  198  A    between atoms: _477  and  _479
REMARK  199  A    between atoms: _479  and  _480
REMARK  200  A    between atoms: _479  and  _482
REMARK  201  A    between atoms: _482  and  _483
REMARK  202  A    between atoms: _483  and  _484
REMARK  203  A    between atoms: _486  and  _488
REMARK  204  A    between atoms: _488  and  _489
REMARK  205  A    between atoms: _488  and  _491
REMARK  206  A    between atoms: _491  and  _492
REMARK  207  A    between atoms: _492  and  _493
REMARK  208  A    between atoms: _493  and  _494
REMARK  209  A    between atoms: _494  and  _495
REMARK  210  A    between atoms: _499  and  _501
REMARK  211  A    between atoms: _501  and  _502
REMARK  212  A    between atoms: _501  and  _504
REMARK  213  A    between atoms: _504  and  _505
REMARK  214  A    between atoms: _511  and  _513
REMARK  215  A    between atoms: _513  and  _514
REMARK  216  A    between atoms: _513  and  _516
REMARK  217  A    between atoms: _516  and  _517
REMARK  218  A    between atoms: _520  and  _522
REMARK  219  A    between atoms: _522  and  _523
REMARK  220  A    between atoms: _522  and  _525
REMARK  221  A    between atoms: _528  and  _530
REMARK  222  A    between atoms: _530  and  _531
REMARK  223  A    between atoms: _530  and  _533
REMARK  224  A    between atoms: _533  and  _534
REMARK  225  A    between atoms: _539  and  _541
REMARK  226  A    between atoms: _541  and  _542
REMARK  227  A    between atoms: _541  and  _544
REMARK  228  A    between atoms: _547  and  _549
REMARK  229  A    between atoms: _549  and  _550
REMARK  230  A    between atoms: _549  and  _552
REMARK  231  A    between atoms: _552  and  _553
REMARK  232  A    between atoms: _556  and  _558
REMARK  233  A    between atoms: _558  and  _559
REMARK  234  A    between atoms: _558  and  _561
REMARK  235  A    between atoms: _561  and  _562
REMARK  236  A    between atoms: _565  and  _567
REMARK  237  A    between atoms: _567  and  _568
REMARK  238  A    between atoms: _567  and  _570
REMARK  239  A    between atoms: _570  and  _571
REMARK  240  A    between atoms: _571  and  _572
REMARK  241  A    between atoms: _574  and  _576
REMARK  242  A    between atoms: _576  and  _577
REMARK  243  A    between atoms: _576  and  _579
REMARK  244  A    between atoms: _579  and  _580
REMARK  245  A    between atoms: _582  and  _584
REMARK  246  A    between atoms: _584  and  _585
REMARK  247  A    between atoms: _584  and  _587
REMARK  248  A    between atoms: _587  and  _588
REMARK  249  A    between atoms: _591  and  _593
REMARK  250  A    between atoms: _593  and  _594
REMARK  251  A    between atoms: _593  and  _596
REMARK  252  A    between atoms: _596  and  _597
REMARK  253  A    between atoms: _602  and  _604
REMARK  254  A    between atoms: _604  and  _605
REMARK  255  A    between atoms: _604  and  _607
REMARK  256  A    between atoms: _607  and  _608
REMARK  257  A    between atoms: _611  and  _613
REMARK  258  A    between atoms: _613  and  _614
REMARK  259  A    between atoms: _613  and  _616
REMARK  260  A    between atoms: _616  and  _617
REMARK  261  A    between atoms: _620  and  _622
REMARK  262  A    between atoms: _622  and  _623
REMARK  263  A    between atoms: _622  and  _625
REMARK  264  A    between atoms: _625  and  _626
REMARK  265  A    between atoms: _626  and  _627
REMARK  266  A    between atoms: _632  and  _634
REMARK  267  A    between atoms: _634  and  _635
REMARK  268  A    between atoms: _634  and  _637
REMARK  269  A    between atoms: _637  and  _638
REMARK  270  A    between atoms: _641  and  _643
REMARK  271  A    between atoms: _643  and  _644
REMARK  272  A    between atoms: _643  and  _646
REMARK  273  A    between atoms: _646  and  _647
REMARK  274  A    between atoms: _652  and  _653
REMARK                            x       y       z     vdW  Elec       q    Type
REMARK                         _______ _______ _______ _____ _____    ______ ____
ROOT
ATOM      1  CA  LEU A   1      27.187  18.769  22.158  0.00  0.00    +0.133 C 
ENDROOT
BRANCH   1   2
ATOM      2  N   LEU A   1      27.815  17.503  21.807  0.00  0.00    -0.239 NA
ATOM      3  H   LEU A   1      27.391  16.617  22.150  0.00  0.00    +0.142 HD
ENDBRANCH   1   2
BRANCH   1   4
ATOM      4  C   LEU A   1      28.071  19.560  23.137  0.00  0.00    +0.224 C 
ATOM      5  O   LEU A   1      28.121  20.792  23.091  0.00  0.00    -0.287 OA
ENDBRANCH   1   4
BRANCH   1   6
ATOM      6  CB  LEU A   1      25.813  18.498  22.768  0.00  0.00    +0.025 C 
BRANCH   6   7
ATOM      7  CG  LEU A   1      24.722  19.521  22.472  0.00  0.00    +0.002 C 
ATOM      8  CD2 LEU A   1      23.424  19.061  23.112  0.00  0.00    +0.000 C 
ATOM      9  CD1 LEU A   1      24.548  19.672  20.967  0.00  0.00    +0.000 C 
ENDBRANCH   6   7
ENDBRANCH   1   6
TORSDOF 4
REMARK  Name = ../refined-set-2016/2i4j/2i4j_pocket.pdb
REMARK  274 active torsions:
REMARK  status: ('A' for Active; 'I' for Inactive)
REMARK    1  A    between atoms: _1  and  _3
REMARK    2  A    between atoms: _3  and  _4
REMARK    3  A    between atoms: _3  and  _6
REMARK    4  A    between atoms: _6  and  _7
REMARK    5  A    between atoms: _12  and  _13
REMARK    6  A    between atoms: _15  and  _17
REMARK    7  A    between atoms: _17  and  _18
REMARK    8  A    between atoms: _17  and  _20
REMARK    9  A    between atoms: _20  and  _21
REMARK   10  A    between atoms: _23  and  _25
REMARK   11  A    between atoms: _25  and  _26
REMARK   12  A    between atoms: _25  and  _28
REMARK   13  A    between atoms: _28  and  _29
REMARK   14  A    between atoms: _36  and  _37
REMARK   15  A    between atoms: _42  and  _44
REMARK   16  A    between atoms: _44  and  _45
REMARK   17  A    between atoms: _44  and  _47
REMARK   18  A    between atoms: _47  and  _48
REMARK   19  A    between atoms: _51  and  _53
REMARK   20  A    between atoms: _53  and  _54
REMARK   21  A    between atoms: _53  and  _56
REMARK   22  A    between atoms: _56  and  _57
REMARK   23  A    between atoms: _60  and  _62
REMARK   24  A    between atoms: _62  and  _63
REMARK   25  A    between atoms: _62  and  _65
REMARK   26  A    between atoms: _65  and  _66
REMARK   27  A    between atoms: _72  and  _74
REMARK   28  A    between atoms: _74  and  _75
REMARK   29  A    between atoms: _74  and  _77
REMARK   30  A    between atoms: _77  and  _78
REMARK   31  A    between atoms: _78  and  _79
REMARK   32  A    between atoms: _84  and  _86
REMARK   33  A    between atoms: _86  and  _87
REMARK   34  A    between atoms: _89  and  _91
REMARK   35  A    between atoms: _91  and  _92
REMARK   36  A    between atoms: _91  and  _94
REMARK   37  A    between atoms: _96  and  _98
REMARK   38  A    between atoms: _98  and  _99
REMARK   39  A    between atoms: _98  and  _101
REMARK   40  A    between atoms: _101  and  _102
REMARK   41  A    between atoms: _102  and  _103
REMARK   42  A    between atoms: _108  and  _110
REMARK   43  A    between atoms: _110  and  _111
REMARK   44  A    between atoms: _110  and  _113
REMARK   45  A    between atoms: _113  and  _114
REMARK   46  A    between atoms: _120  and  _122
REMARK   47  A    between atoms: _122  and  _123
REMARK   48  A    between atoms: _122  and  _125
REMARK   49  A    between atoms: _125  and  _126
REMARK   50  A    between atoms: _126  and  _127
REMARK   51  A    between atoms: _127  and  _128
REMARK   52  A    between atoms: _137  and  _139
REMARK   53  A    between atoms: _139  and  _140
REMARK   54  A    between atoms: _139  and  _142
REMARK   55  A    between atoms: _142  and  _143
REMARK   56  A    between atoms: _145  and  _147
REMARK   57  A    between atoms: _147  and  _148
REMARK   58  A    between atoms: _147  and  _150
REMARK   59  A    between atoms: _153  and  _155
REMARK   60  A    between atoms: _155  and  _156
REMARK   61  A    between atoms: _155  and  _158
REMARK   62  A    between atoms: _158  and  _159
REMARK   63  A    between atoms: _159  and  _160
REMARK   64  A    between atoms: _163  and  _165
REMARK   65  A    between atoms: _165  and  _166
REMARK   66  A    between atoms: _169  and  _171
REMARK   67  A    between atoms: _171  and  _172
REMARK   68  A    between atoms: _171  and  _174
REMARK   69  A    between atoms: _177  and  _179
REMARK   70  A    between atoms: _179  and  _180
REMARK   71  A    between atoms: _179  and  _182
REMARK   72  A    between atoms: _182  and  _183
REMARK   73  A    between atoms: _183  and  _184
REMARK   74  A    between atoms: _189  and  _191
REMARK   75  A    between atoms: _191  and  _192
REMARK   76  A    between atoms: _191  and  _194
REMARK   77  A    between atoms: _194  and  _195
REMARK   78  A    between atoms: _195  and  _196
REMARK   79  A    between atoms: _199  and  _201
REMARK   80  A    between atoms: _201  and  _202
REMARK   81  A    between atoms: _201  and  _204
REMARK   82  A    between atoms: _204  and  _205
REMARK   83  A    between atoms: _208  and  _210
REMARK   84  A    between atoms: _210  and  _211
REMARK   85  A    between atoms: _210  and  _213
REMARK   86  A    between atoms: _213  and  _214
REMARK   87  A    between atoms: _217  and  _219
REMARK   88  A    between atoms: _219  and  _220
REMARK   89  A    between atoms: _219  and  _222
REMARK   90  A    between atoms: _222  and  _223
REMARK   91  A    between atoms: _228  and  _229
REMARK   92  A    between atoms: _231  and  _233
REMARK   93  A    between atoms: _233  and  _234
REMARK   94  A    between atoms: _233  and  _236
REMARK   95  A    between atoms: _239  and  _241
REMARK   96  A    between atoms: _241  and  _242
REMARK   97  A    between atoms: _241  and  _244
REMARK   98  A    between atoms: _244  and  _245
REMARK   99  A    between atoms: _250  and  _252
REMARK  100  A    between atoms: _252  and  _253
REMARK  101  A    between atoms: _252  and  _255
REMARK  102  A    between atoms: _255  and  _256
REMARK  103  A    between atoms: _256  and  _257
REMARK  104  A    between atoms: _260  and  _262
REMARK  105  A    between atoms: _262  and  _263
REMARK  106  A    between atoms: _262  and  _265
REMARK  107  A    between atoms: _265  and  _266
REMARK  108  A    between atoms: _269  and  _271
REMARK  109  A    between atoms: _271  and  _272
REMARK  110  A    between atoms: _271  and  _274
REMARK  111  A    between atoms: _274  and  _275
REMARK  112  A    between atoms: _278  and  _280
REMARK  113  A    between atoms: _280  and  _281
REMARK  114  A    between atoms: _280  and  _283
REMARK  115  A    between atoms: _283  and  _284
REMARK  116  A    between atoms: _289  and  _290
REMARK  117  A    between atoms: _292  and  _294
REMARK  118  A    between atoms: _294  and  _295
REMARK  119  A    between atoms: _294  and  _297
REMARK  120  A    between atoms: _297  and  _298
REMARK  121  A    between atoms: _301  and  _303
REMARK  122  A    between atoms: _303  and  _304
REMARK  123  A    between atoms: _303  and  _306
REMARK  124  A    between atoms: _306  and  _307
REMARK  125  A    between atoms: _307  and  _308
REMARK  126  A    between atoms: _310  and  _312
REMARK  127  A    between atoms: _312  and  _313
REMARK  128  A    between atoms: _312  and  _315
REMARK  129  A    between atoms: _315  and  _316
REMARK  130  A    between atoms: _319  and  _321
REMARK  131  A    between atoms: _321  and  _322
REMARK  132  A    between atoms: _325  and  _327
REMARK  133  A    between atoms: _327  and  _328
REMARK  134  A    between atoms: _327  and  _330
REMARK  135  A    between atoms: _330  and  _331
REMARK  136  A    between atoms: _333  and  _335
REMARK  137  A    between atoms: _335  and  _336
REMARK  138  A    between atoms: _335  and  _338
REMARK  139  A    between atoms: _338  and  _339
REMARK  140  A    between atoms: _342  and  _344
REMARK  141  A    between atoms: _344  and  _345
REMARK  142  A    between atoms: _344  and  _347
REMARK  143  A    between atoms: _347  and  _348
REMARK  144  A    between atoms: _348  and  _349
REMARK  145  A    between atoms: _351  and  _353
REMARK  146  A    between atoms: _353  and  _354
REMARK  147  A    between atoms: _356  and  _358
REMARK  148  A    between atoms: _358  and  _359
REMARK  149  A    between atoms: _358  and  _361
REMARK  150  A    between atoms: _364  and  _366
REMARK  151  A    between atoms: _366  and  _367
REMARK  152  A    between atoms: _366  and  _369
REMARK  153  A    between atoms: _369  and  _370
REMARK  154  A    between atoms: _373  and  _375
REMARK  155  A    between atoms: _375  and  _376
REMARK  156  A    between atoms: _375  and  _378
REMARK  157  A    between atoms: _378  and  _379
REMARK  158  A    between atoms: _382  and  _384
REMARK  159  A    between atoms: _384  and  _385
REMARK  160  A    between atoms: _384  and  _387
REMARK  161  A    between atoms: _387  and  _388
REMARK  162  A    between atoms: _390  and  _392
REMARK  163  A    between atoms: _392  and  _393
REMARK  164  A    between atoms: _392  and  _395
REMARK  165  A    between atoms: _395  and  _396
REMARK  166  A    between atoms: _396  and  _397
REMARK  167  A    between atoms: _400  and  _402
REMARK  168  A    between atoms: _402  and  _403
REMARK  169  A    between atoms: _405  and  _407
REMARK  170  A    between atoms: _407  and  _408
REMARK  171  A    between atoms: _407  and  _410
REMARK  172  A    between atoms: _410  and  _411
REMARK  173  A    between atoms: _417  and  _419
REMARK  174  A    between atoms: _419  and  _420
REMARK  175  A    between atoms: _419  and  _422
REMARK  176  A    between atoms: _422  and  _423
REMARK  177  A    between atoms: _423  and  _424
REMARK  178  A    between atoms: _426  and  _428
REMARK  179  A    between atoms: _428  and  _429
REMARK  180  A    between atoms: _428  and  _431
REMARK  181  A    between atoms: _431  and  _432
REMARK  182  A    between atoms: _435  and  _437
REMARK  183  A    between atoms: _437  and  _438
REMARK  184  A    between atoms: _437  and  _440
REMARK  185  A    between atoms: _440  and  _441
REMARK  186  A    between atoms: _447  and  _449
REMARK  187  A    between atoms: _449  and  _450
REMARK  188  A    between atoms: _449  and  _452
REMARK  189  A    between atoms: _452  and  _453
REMARK  190  A    between atoms: _456  and  _458
REMARK  191  A    between atoms: _458  and  _459
REMARK  192  A    between atoms: _458  and  _461
REMARK  193  A    between atoms: _461  and  _462
REMARK  194  A    between atoms: _465  and  _467
REMARK  195  A    between atoms: _467  and  _468
REMARK  196  A    between atoms: _467  and  _470
REMARK  197  A    between atoms: _470  and  _471
REMARK  198  A    between atoms: _477  and  _479
REMARK  199  A    between atoms: _479  and  _480
REMARK  200  A    between atoms: _479  and  _482
REMARK  201  A    between atoms: _482  and  _483
REMARK  202  A    between atoms: _483  and  _484
REMARK  203  A    between atoms: _486  and  _488
REMARK  204  A    between atoms: _488  and  _489
REMARK  205  A    between atoms: _488  and  _491
REMARK  206  A    between atoms: _491  and  _492
REMARK  207  A    between atoms: _492  and  _493
REMARK  208  A    between atoms: _493  and  _494
REMARK  209  A    between atoms: _494  and  _495
REMARK  210  A    between atoms: _499  and  _501
REMARK  211  A    between atoms: _501  and  _502
REMARK  212  A    between atoms: _501  and  _504
REMARK  213  A    between atoms: _504  and  _505
REMARK  214  A    between atoms: _511  and  _513
REMARK  215  A    between atoms: _513  and  _514
REMARK  216  A    between atoms: _513  and  _516
REMARK  217  A    between atoms: _516  and  _517
REMARK  218  A    between atoms: _520  and  _522
REMARK  219  A    between atoms: _522  and  _523
REMARK  220  A    between atoms: _522  and  _525
REMARK  221  A    between atoms: _528  and  _530
REMARK  222  A    between atoms: _530  and  _531
REMARK  223  A    between atoms: _530  and  _533
REMARK  224  A    between atoms: _533  and  _534
REMARK  225  A    between atoms: _539  and  _541
REMARK  226  A    between atoms: _541  and  _542
REMARK  227  A    between atoms: _541  and  _544
REMARK  228  A    between atoms: _547  and  _549
REMARK  229  A    between atoms: _549  and  _550
REMARK  230  A    between atoms: _549  and  _552
REMARK  231  A    between atoms: _552  and  _553
REMARK  232  A    between atoms: _556  and  _558
REMARK  233  A    between atoms: _558  and  _559
REMARK  234  A    between atoms: _558  and  _561
REMARK  235  A    between atoms: _561  and  _562
REMARK  236  A    between atoms: _565  and  _567
REMARK  237  A    between atoms: _567  and  _568
REMARK  238  A    between atoms: _567  and  _570
REMARK  239  A    between atoms: _570  and  _571
REMARK  240  A    between atoms: _571  and  _572
REMARK  241  A    between atoms: _574  and  _576
REMARK  242  A    between atoms: _576  and  _577
REMARK  243  A    between atoms: _576  and  _579
REMARK  244  A    between atoms: _579  and  _580
REMARK  245  A    between atoms: _582  and  _584
REMARK  246  A    between atoms: _584  and  _585
REMARK  247  A    between atoms: _584  and  _587
REMARK  248  A    between atoms: _587  and  _588
REMARK  249  A    between atoms: _591  and  _593
REMARK  250  A    between atoms: _593  and  _594
REMARK  251  A    between atoms: _593  and  _596
REMARK  252  A    between atoms: _596  and  _597
REMARK  253  A    between atoms: _602  and  _604
REMARK  254  A    between atoms: _604  and  _605
REMARK  255  A    between atoms: _604  and  _607
REMARK  256  A    between atoms: _607  and  _608
REMARK  257  A    between atoms: _611  and  _613
REMARK  258  A    between atoms: _613  and  _614
REMARK  259  A    between atoms: _613  and  _616
REMARK  260  A    between atoms: _616  and  _617
REMARK  261  A    between atoms: _620  and  _622
REMARK  262  A    between atoms: _622  and  _623
REMARK  263  A    between atoms: _622  and  _625
REMARK  264  A    between atoms: _625  and  _626
REMARK  265  A    between atoms: _626  and  _627
REMARK  266  A    between atoms: _632  and  _634
REMARK  267  A    between atoms: _634  and  _635
REMARK  268  A    between atoms: _634  and  _637
REMARK  269  A    between atoms: _637  and  _638
REMARK  270  A    between atoms: _641  and  _643
REMARK  271  A    between atoms: _643  and  _644
REMARK  272  A    between atoms: _643  and  _646
REMARK  273  A    between atoms: _646  and  _647
REMARK  274  A    between atoms: _652  and  _653
REMARK                            x       y       z     vdW  Elec       q    Type
REMARK                         _______ _______ _______ _____ _____    ______ ____
ROOT
ATOM      1  CA  ILE A   1      30.075  22.419  20.323  0.00  0.00    +0.133 C 
ENDROOT
BRANCH   1   2
ATOM      2  N   ILE A   1      30.660  21.265  21.001  0.00  0.00    -0.239 NA
ATOM      3  H   ILE A   1      30.137  20.366  21.006  0.00  0.00    +0.142 HD
ENDBRANCH   1   2
BRANCH   1   4
ATOM      4  C   ILE A   1      29.989  23.642  21.228  0.00  0.00    +0.224 C 
ATOM      5  O   ILE A   1      30.379  24.746  20.849  0.00  0.00    -0.287 OA
ENDBRANCH   1   4
BRANCH   1   6
ATOM      6  CB  ILE A   1      28.659  22.087  19.816  0.00  0.00    +0.023 C 
ATOM      7  CG2 ILE A   1      27.806  23.343  19.760  0.00  0.00    +0.002 C 
BRANCH   6   8
ATOM      8  CG1 ILE A   1      28.754  21.416  18.448  0.00  0.00    +0.002 C 
ATOM      9  CD1 ILE A   1      29.435  22.275  17.395  0.00  0.00    +0.000 C 
ENDBRANCH   6   8
ENDBRANCH   1   6
TORSDOF 4
REMARK  Name = ../refined-set-2016/2i4j/2i4j_pocket.pdb
REMARK  274 active torsions:
REMARK  status: ('A' for Active; 'I' for Inactive)
REMARK    1  A    between atoms: _1  and  _3
REMARK    2  A    between atoms: _3  and  _4
REMARK    3  A    between atoms: _3  and  _6
REMARK    4  A    between atoms: _6  and  _7
REMARK    5  A    between atoms: _12  and  _13
REMARK    6  A    between atoms: _15  and  _17
REMARK    7  A    between atoms: _17  and  _18
REMARK    8  A    between atoms: _17  and  _20
REMARK    9  A    between atoms: _20  and  _21
REMARK   10  A    between atoms: _23  and  _25
REMARK   11  A    between atoms: _25  and  _26
REMARK   12  A    between atoms: _25  and  _28
REMARK   13  A    between atoms: _28  and  _29
REMARK   14  A    between atoms: _36  and  _37
REMARK   15  A    between atoms: _42  and  _44
REMARK   16  A    between atoms: _44  and  _45
REMARK   17  A    between atoms: _44  and  _47
REMARK   18  A    between atoms: _47  and  _48
REMARK   19  A    between atoms: _51  and  _53
REMARK   20  A    between atoms: _53  and  _54
REMARK   21  A    between atoms: _53  and  _56
REMARK   22  A    between atoms: _56  and  _57
REMARK   23  A    between atoms: _60  and  _62
REMARK   24  A    between atoms: _62  and  _63
REMARK   25  A    between atoms: _62  and  _65
REMARK   26  A    between atoms: _65  and  _66
REMARK   27  A    between atoms: _72  and  _74
REMARK   28  A    between atoms: _74  and  _75
REMARK   29  A    between atoms: _74  and  _77
REMARK   30  A    between atoms: _77  and  _78
REMARK   31  A    between atoms: _78  and  _79
REMARK   32  A    between atoms: _84  and  _86
REMARK   33  A    between atoms: _86  and  _87
REMARK   34  A    between atoms: _89  and  _91
REMARK   35  A    between atoms: _91  and  _92
REMARK   36  A    between atoms: _91  and  _94
REMARK   37  A    between atoms: _96  and  _98
REMARK   38  A    between atoms: _98  and  _99
REMARK   39  A    between atoms: _98  and  _101
REMARK   40  A    between atoms: _101  and  _102
REMARK   41  A    between atoms: _102  and  _103
REMARK   42  A    between atoms: _108  and  _110
REMARK   43  A    between atoms: _110  and  _111
REMARK   44  A    between atoms: _110  and  _113
REMARK   45  A    between atoms: _113  and  _114
REMARK   46  A    between atoms: _120  and  _122
REMARK   47  A    between atoms: _122  and  _123
REMARK   48  A    between atoms: _122  and  _125
REMARK   49  A    between atoms: _125  and  _126
REMARK   50  A    between atoms: _126  and  _127
REMARK   51  A    between atoms: _127  and  _128
REMARK   52  A    between atoms: _137  and  _139
REMARK   53  A    between atoms: _139  and  _140
REMARK   54  A    between atoms: _139  and  _142
REMARK   55  A    between atoms: _142  and  _143
REMARK   56  A    between atoms: _145  and  _147
REMARK   57  A    between atoms: _147  and  _148
REMARK   58  A    between atoms: _147  and  _150
REMARK   59  A    between atoms: _153  and  _155
REMARK   60  A    between atoms: _155  and  _156
REMARK   61  A    between atoms: _155  and  _158
REMARK   62  A    between atoms: _158  and  _159
REMARK   63  A    between atoms: _159  and  _160
REMARK   64  A    between atoms: _163  and  _165
REMARK   65  A    between atoms: _165  and  _166
REMARK   66  A    between atoms: _169  and  _171
REMARK   67  A    between atoms: _171  and  _172
REMARK   68  A    between atoms: _171  and  _174
REMARK   69  A    between atoms: _177  and  _179
REMARK   70  A    between atoms: _179  and  _180
REMARK   71  A    between atoms: _179  and  _182
REMARK   72  A    between atoms: _182  and  _183
REMARK   73  A    between atoms: _183  and  _184
REMARK   74  A    between atoms: _189  and  _191
REMARK   75  A    between atoms: _191  and  _192
REMARK   76  A    between atoms: _191  and  _194
REMARK   77  A    between atoms: _194  and  _195
REMARK   78  A    between atoms: _195  and  _196
REMARK   79  A    between atoms: _199  and  _201
REMARK   80  A    between atoms: _201  and  _202
REMARK   81  A    between atoms: _201  and  _204
REMARK   82  A    between atoms: _204  and  _205
REMARK   83  A    between atoms: _208  and  _210
REMARK   84  A    between atoms: _210  and  _211
REMARK   85  A    between atoms: _210  and  _213
REMARK   86  A    between atoms: _213  and  _214
REMARK   87  A    between atoms: _217  and  _219
REMARK   88  A    between atoms: _219  and  _220
REMARK   89  A    between atoms: _219  and  _222
REMARK   90  A    between atoms: _222  and  _223
REMARK   91  A    between atoms: _228  and  _229
REMARK   92  A    between atoms: _231  and  _233
REMARK   93  A    between atoms: _233  and  _234
REMARK   94  A    between atoms: _233  and  _236
REMARK   95  A    between atoms: _239  and  _241
REMARK   96  A    between atoms: _241  and  _242
REMARK   97  A    between atoms: _241  and  _244
REMARK   98  A    between atoms: _244  and  _245
REMARK   99  A    between atoms: _250  and  _252
REMARK  100  A    between atoms: _252  and  _253
REMARK  101  A    between atoms: _252  and  _255
REMARK  102  A    between atoms: _255  and  _256
REMARK  103  A    between atoms: _256  and  _257
REMARK  104  A    between atoms: _260  and  _262
REMARK  105  A    between atoms: _262  and  _263
REMARK  106  A    between atoms: _262  and  _265
REMARK  107  A    between atoms: _265  and  _266
REMARK  108  A    between atoms: _269  and  _271
REMARK  109  A    between atoms: _271  and  _272
REMARK  110  A    between atoms: _271  and  _274
REMARK  111  A    between atoms: _274  and  _275
REMARK  112  A    between atoms: _278  and  _280
REMARK  113  A    between atoms: _280  and  _281
REMARK  114  A    between atoms: _280  and  _283
REMARK  115  A    between atoms: _283  and  _284
REMARK  116  A    between atoms: _289  and  _290
REMARK  117  A    between atoms: _292  and  _294
REMARK  118  A    between atoms: _294  and  _295
REMARK  119  A    between atoms: _294  and  _297
REMARK  120  A    between atoms: _297  and  _298
REMARK  121  A    between atoms: _301  and  _303
REMARK  122  A    between atoms: _303  and  _304
REMARK  123  A    between atoms: _303  and  _306
REMARK  124  A    between atoms: _306  and  _307
REMARK  125  A    between atoms: _307  and  _308
REMARK  126  A    between atoms: _310  and  _312
REMARK  127  A    between atoms: _312  and  _313
REMARK  128  A    between atoms: _312  and  _315
REMARK  129  A    between atoms: _315  and  _316
REMARK  130  A    between atoms: _319  and  _321
REMARK  131  A    between atoms: _321  and  _322
REMARK  132  A    between atoms: _325  and  _327
REMARK  133  A    between atoms: _327  and  _328
REMARK  134  A    between atoms: _327  and  _330
REMARK  135  A    between atoms: _330  and  _331
REMARK  136  A    between atoms: _333  and  _335
REMARK  137  A    between atoms: _335  and  _336
REMARK  138  A    between atoms: _335  and  _338
REMARK  139  A    between atoms: _338  and  _339
REMARK  140  A    between atoms: _342  and  _344
REMARK  141  A    between atoms: _344  and  _345
REMARK  142  A    between atoms: _344  and  _347
REMARK  143  A    between atoms: _347  and  _348
REMARK  144  A    between atoms: _348  and  _349
REMARK  145  A    between atoms: _351  and  _353
REMARK  146  A    between atoms: _353  and  _354
REMARK  147  A    between atoms: _356  and  _358
REMARK  148  A    between atoms: _358  and  _359
REMARK  149  A    between atoms: _358  and  _361
REMARK  150  A    between atoms: _364  and  _366
REMARK  151  A    between atoms: _366  and  _367
REMARK  152  A    between atoms: _366  and  _369
REMARK  153  A    between atoms: _369  and  _370
REMARK  154  A    between atoms: _373  and  _375
REMARK  155  A    between atoms: _375  and  _376
REMARK  156  A    between atoms: _375  and  _378
REMARK  157  A    between atoms: _378  and  _379
REMARK  158  A    between atoms: _382  and  _384
REMARK  159  A    between atoms: _384  and  _385
REMARK  160  A    between atoms: _384  and  _387
REMARK  161  A    between atoms: _387  and  _388
REMARK  162  A    between atoms: _390  and  _392
REMARK  163  A    between atoms: _392  and  _393
REMARK  164  A    between atoms: _392  and  _395
REMARK  165  A    between atoms: _395  and  _396
REMARK  166  A    between atoms: _396  and  _397
REMARK  167  A    between atoms: _400  and  _402
REMARK  168  A    between atoms: _402  and  _403
REMARK  169  A    between atoms: _405  and  _407
REMARK  170  A    between atoms: _407  and  _408
REMARK  171  A    between atoms: _407  and  _410
REMARK  172  A    between atoms: _410  and  _411
REMARK  173  A    between atoms: _417  and  _419
REMARK  174  A    between atoms: _419  and  _420
REMARK  175  A    between atoms: _419  and  _422
REMARK  176  A    between atoms: _422  and  _423
REMARK  177  A    between atoms: _423  and  _424
REMARK  178  A    between atoms: _426  and  _428
REMARK  179  A    between atoms: _428  and  _429
REMARK  180  A    between atoms: _428  and  _431
REMARK  181  A    between atoms: _431  and  _432
REMARK  182  A    between atoms: _435  and  _437
REMARK  183  A    between atoms: _437  and  _438
REMARK  184  A    between atoms: _437  and  _440
REMARK  185  A    between atoms: _440  and  _441
REMARK  186  A    between atoms: _447  and  _449
REMARK  187  A    between atoms: _449  and  _450
REMARK  188  A    between atoms: _449  and  _452
REMARK  189  A    between atoms: _452  and  _453
REMARK  190  A    between atoms: _456  and  _458
REMARK  191  A    between atoms: _458  and  _459
REMARK  192  A    between atoms: _458  and  _461
REMARK  193  A    between atoms: _461  and  _462
REMARK  194  A    between atoms: _465  and  _467
REMARK  195  A    between atoms: _467  and  _468
REMARK  196  A    between atoms: _467  and  _470
REMARK  197  A    between atoms: _470  and  _471
REMARK  198  A    between atoms: _477  and  _479
REMARK  199  A    between atoms: _479  and  _480
REMARK  200  A    between atoms: _479  and  _482
REMARK  201  A    between atoms: _482  and  _483
REMARK  202  A    between atoms: _483  and  _484
REMARK  203  A    between atoms: _486  and  _488
REMARK  204  A    between atoms: _488  and  _489
REMARK  205  A    between atoms: _488  and  _491
REMARK  206  A    between atoms: _491  and  _492
REMARK  207  A    between atoms: _492  and  _493
REMARK  208  A    between atoms: _493  and  _494
REMARK  209  A    between atoms: _494  and  _495
REMARK  210  A    between atoms: _499  and  _501
REMARK  211  A    between atoms: _501  and  _502
REMARK  212  A    between atoms: _501  and  _504
REMARK  213  A    between atoms: _504  and  _505
REMARK  214  A    between atoms: _511  and  _513
REMARK  215  A    between atoms: _513  and  _514
REMARK  216  A    between atoms: _513  and  _516
REMARK  217  A    between atoms: _516  and  _517
REMARK  218  A    between atoms: _520  and  _522
REMARK  219  A    between atoms: _522  and  _523
REMARK  220  A    between atoms: _522  and  _525
REMARK  221  A    between atoms: _528  and  _530
REMARK  222  A    between atoms: _530  and  _531
REMARK  223  A    between atoms: _530  and  _533
REMARK  224  A    between atoms: _533  and  _534
REMARK  225  A    between atoms: _539  and  _541
REMARK  226  A    between atoms: _541  and  _542
REMARK  227  A    between atoms: _541  and  _544
REMARK  228  A    between atoms: _547  and  _549
REMARK  229  A    between atoms: _549  and  _550
REMARK  230  A    between atoms: _549  and  _552
REMARK  231  A    between atoms: _552  and  _553
REMARK  232  A    between atoms: _556  and  _558
REMARK  233  A    between atoms: _558  and  _559
REMARK  234  A    between atoms: _558  and  _561
REMARK  235  A    between atoms: _561  and  _562
REMARK  236  A    between atoms: _565  and  _567
REMARK  237  A    between atoms: _567  and  _568
REMARK  238  A    between atoms: _567  and  _570
REMARK  239  A    between atoms: _570  and  _571
REMARK  240  A    between atoms: _571  and  _572
REMARK  241  A    between atoms: _574  and  _576
REMARK  242  A    between atoms: _576  and  _577
REMARK  243  A    between atoms: _576  and  _579
REMARK  244  A    between atoms: _579  and  _580
REMARK  245  A    between atoms: _582  and  _584
REMARK  246  A    between atoms: _584  and  _585
REMARK  247  A    between atoms: _584  and  _587
REMARK  248  A    between atoms: _587  and  _588
REMARK  249  A    between atoms: _591  and  _593
REMARK  250  A    between atoms: _593  and  _594
REMARK  251  A    between atoms: _593  and  _596
REMARK  252  A    between atoms: _596  and  _597
REMARK  253  A    between atoms: _602  and  _604
REMARK  254  A    between atoms: _604  and  _605
REMARK  255  A    between atoms: _604  and  _607
REMARK  256  A    between atoms: _607  and  _608
REMARK  257  A    between atoms: _611  and  _613
REMARK  258  A    between atoms: _613  and  _614
REMARK  259  A    between atoms: _613  and  _616
REMARK  260  A    between atoms: _616  and  _617
REMARK  261  A    between atoms: _620  and  _622
REMARK  262  A    between atoms: _622  and  _623
REMARK  263  A    between atoms: _622  and  _625
REMARK  264  A    between atoms: _625  and  _626
REMARK  265  A    between atoms: _626  and  _627
REMARK  266  A    between atoms: _632  and  _634
REMARK  267  A    between atoms: _634  and  _635
REMARK  268  A    between atoms: _634  and  _637
REMARK  269  A    between atoms: _637  and  _638
REMARK  270  A    between atoms: _641  and  _643
REMARK  271  A    between atoms: _643  and  _644
REMARK  272  A    between atoms: _643  and  _646
REMARK  273  A    between atoms: _646  and  _647
REMARK  274  A    between atoms: _652  and  _653
REMARK                            x       y       z     vdW  Elec       q    Type
REMARK                         _______ _______ _______ _____ _____    ______ ____
ROOT
ATOM      1  C   SER A   2      21.986  28.137  21.481  0.00  0.00    +0.243 C 
ATOM      2  N   LEU A   3      21.711  27.517  22.616  0.00  0.00    -0.297 N 
ATOM      3  H   LEU A   3      22.139  27.899  23.483  0.00  0.00    +0.150 HD
ATOM      4  O   SER A   2      21.634  27.769  20.354  0.00  0.00    -0.273 OA
ENDROOT
BRANCH   2   5
ATOM      5  CA  LEU A   3      20.871  26.361  22.751  0.00  0.00    +0.149 C 
BRANCH   5   6
ATOM      6  C   LEU A   3      19.518  26.796  23.309  0.00  0.00    +0.241 C 
ATOM      7  O   LEU A   3      19.400  27.723  24.106  0.00  0.00    -0.273 OA
ATOM      8  N   HIS A   4      18.516  26.088  22.841  0.00  0.00    -0.298 N 
ATOM      9  H   HIS A   4      18.708  25.344  22.140  0.00  0.00    +0.150 HD
BRANCH   8  10
ATOM     10  CA  HIS A   4      17.166  26.310  23.268  0.00  0.00    +0.143 C 
BRANCH  10  11
ATOM     11  C   HIS A   4      17.046  25.830  24.701  0.00  0.00    +0.227 C 
ATOM     12  O   HIS A   4      17.482  24.735  25.036  0.00  0.00    -0.286 OA
ENDBRANCH  10  11
BRANCH  10  13
ATOM     13  CB  HIS A   4      16.217  25.616  22.342  0.00  0.00    +0.075 C 
BRANCH  13  14
ATOM     14  CG  HIS A   4      14.774  26.035  22.571  0.00  0.00    +0.082 A 
ATOM     15  ND1 HIS A   4      14.158  25.918  23.797  0.00  0.00    -0.227 NA
ATOM     16  CE1 HIS A   4      12.910  26.342  23.701  0.00  0.00    +0.199 A 
ATOM     17  NE2 HIS A   4      12.699  26.733  22.457  0.00  0.00    -0.221 NA
ATOM     18  CD2 HIS A   4      13.850  26.554  21.731  0.00  0.00    +0.115 A 
ENDBRANCH  13  14
ENDBRANCH  10  13
ENDBRANCH   8  10
ENDBRANCH   5   6
BRANCH   5  19
ATOM     19  CB  LEU A   3      21.491  25.320  23.689  0.00  0.00    +0.029 C 
BRANCH  19  20
ATOM     20  CG  LEU A   3      20.821  23.940  23.780  0.00  0.00    +0.002 C 
ATOM     21  CD2 LEU A   3      21.311  23.160  24.990  0.00  0.00    +0.000 C 
ATOM     22  CD1 LEU A   3      21.050  23.160  22.500  0.00  0.00    +0.000 C 
ENDBRANCH  19  20
ENDBRANCH   5  19
ENDBRANCH   2   5
BRANCH   1  23
ATOM     23  CA  SER A   2      22.849  29.412  21.671  0.00  0.00    +0.178 C 
BRANCH  23  26
ATOM     24  C   MET A   1      25.099  29.562  20.720  0.00  0.00    +0.238 C 
ATOM     25  O   MET A   1      25.618  29.120  21.738  0.00  0.00    -0.274 OA
ATOM     26  N   SER A   2      23.790  29.684  20.586  0.00  0.00    -0.295 N 
ATOM     27  H   SER A   2      23.412  29.988  19.666  0.00  0.00    +0.150 HD
BRANCH  24  28
ATOM     28  CA  MET A   1      25.925  29.920  19.505  0.00  0.00    +0.146 C 
BRANCH  28  29
ATOM     29  N   MET A   1      27.097  30.694  19.890  0.00  0.00    -0.238 NA
ATOM     30  H   MET A   1      27.968  30.202  20.173  0.00  0.00    +0.142 HD
ENDBRANCH  28  29
BRANCH  28  31
ATOM     31  CB  MET A   1      26.338  28.648  18.778  0.00  0.00    +0.038 C 
BRANCH  31  32
ATOM     32  CG  MET A   1      25.193  27.953  18.074  0.00  0.00    +0.060 C 
BRANCH  32  33
ATOM     33  SD  MET A   1      25.712  26.348  17.481  0.00  0.00    -0.139 S 
ATOM     34  CE  MET A   1      25.425  25.385  18.944  0.00  0.00    +0.069 C 
ENDBRANCH  32  33
ENDBRANCH  31  32
ENDBRANCH  28  31
ENDBRANCH  24  28
ENDBRANCH  23  26
BRANCH  23  35
ATOM     35  CB  SER A   2      21.949  30.618  21.907  0.00  0.00    +0.166 C 
BRANCH  35  36
ATOM     36  OG  SER A   2      20.715  30.454  21.235  0.00  0.00    -0.380 OA
ATOM     37  H   SER A   2      20.144  31.246  21.399  0.00  0.00    +0.211 HD
ENDBRANCH  35  36
ENDBRANCH  23  35
ENDBRANCH   1  23
TORSDOF 17
REMARK  Name = ../refined-set-2016/2i4j/2i4j_pocket.pdb
REMARK  274 active torsions:
REMARK  status: ('A' for Active; 'I' for Inactive)
REMARK    1  A    between atoms: _1  and  _3
REMARK    2  A    between atoms: _3  and  _4
REMARK    3  A    between atoms: _3  and  _6
REMARK    4  A    between atoms: _6  and  _7
REMARK    5  A    between atoms: _12  and  _13
REMARK    6  A    between atoms: _15  and  _17
REMARK    7  A    between atoms: _17  and  _18
REMARK    8  A    between atoms: _17  and  _20
REMARK    9  A    between atoms: _20  and  _21
REMARK   10  A    between atoms: _23  and  _25
REMARK   11  A    between atoms: _25  and  _26
REMARK   12  A    between atoms: _25  and  _28
REMARK   13  A    between atoms: _28  and  _29
REMARK   14  A    between atoms: _36  and  _37
REMARK   15  A    between atoms: _42  and  _44
REMARK   16  A    between atoms: _44  and  _45
REMARK   17  A    between atoms: _44  and  _47
REMARK   18  A    between atoms: _47  and  _48
REMARK   19  A    between atoms: _51  and  _53
REMARK   20  A    between atoms: _53  and  _54
REMARK   21  A    between atoms: _53  and  _56
REMARK   22  A    between atoms: _56  and  _57
REMARK   23  A    between atoms: _60  and  _62
REMARK   24  A    between atoms: _62  and  _63
REMARK   25  A    between atoms: _62  and  _65
REMARK   26  A    between atoms: _65  and  _66
REMARK   27  A    between atoms: _72  and  _74
REMARK   28  A    between atoms: _74  and  _75
REMARK   29  A    between atoms: _74  and  _77
REMARK   30  A    between atoms: _77  and  _78
REMARK   31  A    between atoms: _78  and  _79
REMARK   32  A    between atoms: _84  and  _86
REMARK   33  A    between atoms: _86  and  _87
REMARK   34  A    between atoms: _89  and  _91
REMARK   35  A    between atoms: _91  and  _92
REMARK   36  A    between atoms: _91  and  _94
REMARK   37  A    between atoms: _96  and  _98
REMARK   38  A    between atoms: _98  and  _99
REMARK   39  A    between atoms: _98  and  _101
REMARK   40  A    between atoms: _101  and  _102
REMARK   41  A    between atoms: _102  and  _103
REMARK   42  A    between atoms: _108  and  _110
REMARK   43  A    between atoms: _110  and  _111
REMARK   44  A    between atoms: _110  and  _113
REMARK   45  A    between atoms: _113  and  _114
REMARK   46  A    between atoms: _120  and  _122
REMARK   47  A    between atoms: _122  and  _123
REMARK   48  A    between atoms: _122  and  _125
REMARK   49  A    between atoms: _125  and  _126
REMARK   50  A    between atoms: _126  and  _127
REMARK   51  A    between atoms: _127  and  _128
REMARK   52  A    between atoms: _137  and  _139
REMARK   53  A    between atoms: _139  and  _140
REMARK   54  A    between atoms: _139  and  _142
REMARK   55  A    between atoms: _142  and  _143
REMARK   56  A    between atoms: _145  and  _147
REMARK   57  A    between atoms: _147  and  _148
REMARK   58  A    between atoms: _147  and  _150
REMARK   59  A    between atoms: _153  and  _155
REMARK   60  A    between atoms: _155  and  _156
REMARK   61  A    between atoms: _155  and  _158
REMARK   62  A    between atoms: _158  and  _159
REMARK   63  A    between atoms: _159  and  _160
REMARK   64  A    between atoms: _163  and  _165
REMARK   65  A    between atoms: _165  and  _166
REMARK   66  A    between atoms: _169  and  _171
REMARK   67  A    between atoms: _171  and  _172
REMARK   68  A    between atoms: _171  and  _174
REMARK   69  A    between atoms: _177  and  _179
REMARK   70  A    between atoms: _179  and  _180
REMARK   71  A    between atoms: _179  and  _182
REMARK   72  A    between atoms: _182  and  _183
REMARK   73  A    between atoms: _183  and  _184
REMARK   74  A    between atoms: _189  and  _191
REMARK   75  A    between atoms: _191  and  _192
REMARK   76  A    between atoms: _191  and  _194
REMARK   77  A    between atoms: _194  and  _195
REMARK   78  A    between atoms: _195  and  _196
REMARK   79  A    between atoms: _199  and  _201
REMARK   80  A    between atoms: _201  and  _202
REMARK   81  A    between atoms: _201  and  _204
REMARK   82  A    between atoms: _204  and  _205
REMARK   83  A    between atoms: _208  and  _210
REMARK   84  A    between atoms: _210  and  _211
REMARK   85  A    between atoms: _210  and  _213
REMARK   86  A    between atoms: _213  and  _214
REMARK   87  A    between atoms: _217  and  _219
REMARK   88  A    between atoms: _219  and  _220
REMARK   89  A    between atoms: _219  and  _222
REMARK   90  A    between atoms: _222  and  _223
REMARK   91  A    between atoms: _228  and  _229
REMARK   92  A    between atoms: _231  and  _233
REMARK   93  A    between atoms: _233  and  _234
REMARK   94  A    between atoms: _233  and  _236
REMARK   95  A    between atoms: _239  and  _241
REMARK   96  A    between atoms: _241  and  _242
REMARK   97  A    between atoms: _241  and  _244
REMARK   98  A    between atoms: _244  and  _245
REMARK   99  A    between atoms: _250  and  _252
REMARK  100  A    between atoms: _252  and  _253
REMARK  101  A    between atoms: _252  and  _255
REMARK  102  A    between atoms: _255  and  _256
REMARK  103  A    between atoms: _256  and  _257
REMARK  104  A    between atoms: _260  and  _262
REMARK  105  A    between atoms: _262  and  _263
REMARK  106  A    between atoms: _262  and  _265
REMARK  107  A    between atoms: _265  and  _266
REMARK  108  A    between atoms: _269  and  _271
REMARK  109  A    between atoms: _271  and  _272
REMARK  110  A    between atoms: _271  and  _274
REMARK  111  A    between atoms: _274  and  _275
REMARK  112  A    between atoms: _278  and  _280
REMARK  113  A    between atoms: _280  and  _281
REMARK  114  A    between atoms: _280  and  _283
REMARK  115  A    between atoms: _283  and  _284
REMARK  116  A    between atoms: _289  and  _290
REMARK  117  A    between atoms: _292  and  _294
REMARK  118  A    between atoms: _294  and  _295
REMARK  119  A    between atoms: _294  and  _297
REMARK  120  A    between atoms: _297  and  _298
REMARK  121  A    between atoms: _301  and  _303
REMARK  122  A    between atoms: _303  and  _304
REMARK  123  A    between atoms: _303  and  _306
REMARK  124  A    between atoms: _306  and  _307
REMARK  125  A    between atoms: _307  and  _308
REMARK  126  A    between atoms: _310  and  _312
REMARK  127  A    between atoms: _312  and  _313
REMARK  128  A    between atoms: _312  and  _315
REMARK  129  A    between atoms: _315  and  _316
REMARK  130  A    between atoms: _319  and  _321
REMARK  131  A    between atoms: _321  and  _322
REMARK  132  A    between atoms: _325  and  _327
REMARK  133  A    between atoms: _327  and  _328
REMARK  134  A    between atoms: _327  and  _330
REMARK  135  A    between atoms: _330  and  _331
REMARK  136  A    between atoms: _333  and  _335
REMARK  137  A    between atoms: _335  and  _336
REMARK  138  A    between atoms: _335  and  _338
REMARK  139  A    between atoms: _338  and  _339
REMARK  140  A    between atoms: _342  and  _344
REMARK  141  A    between atoms: _344  and  _345
REMARK  142  A    between atoms: _344  and  _347
REMARK  143  A    between atoms: _347  and  _348
REMARK  144  A    between atoms: _348  and  _349
REMARK  145  A    between atoms: _351  and  _353
REMARK  146  A    between atoms: _353  and  _354
REMARK  147  A    between atoms: _356  and  _358
REMARK  148  A    between atoms: _358  and  _359
REMARK  149  A    between atoms: _358  and  _361
REMARK  150  A    between atoms: _364  and  _366
REMARK  151  A    between atoms: _366  and  _367
REMARK  152  A    between atoms: _366  and  _369
REMARK  153  A    between atoms: _369  and  _370
REMARK  154  A    between atoms: _373  and  _375
REMARK  155  A    between atoms: _375  and  _376
REMARK  156  A    between atoms: _375  and  _378
REMARK  157  A    between atoms: _378  and  _379
REMARK  158  A    between atoms: _382  and  _384
REMARK  159  A    between atoms: _384  and  _385
REMARK  160  A    between atoms: _384  and  _387
REMARK  161  A    between atoms: _387  and  _388
REMARK  162  A    between atoms: _390  and  _392
REMARK  163  A    between atoms: _392  and  _393
REMARK  164  A    between atoms: _392  and  _395
REMARK  165  A    between atoms: _395  and  _396
REMARK  166  A    between atoms: _396  and  _397
REMARK  167  A    between atoms: _400  and  _402
REMARK  168  A    between atoms: _402  and  _403
REMARK  169  A    between atoms: _405  and  _407
REMARK  170  A    between atoms: _407  and  _408
REMARK  171  A    between atoms: _407  and  _410
REMARK  172  A    between atoms: _410  and  _411
REMARK  173  A    between atoms: _417  and  _419
REMARK  174  A    between atoms: _419  and  _420
REMARK  175  A    between atoms: _419  and  _422
REMARK  176  A    between atoms: _422  and  _423
REMARK  177  A    between atoms: _423  and  _424
REMARK  178  A    between atoms: _426  and  _428
REMARK  179  A    between atoms: _428  and  _429
REMARK  180  A    between atoms: _428  and  _431
REMARK  181  A    between atoms: _431  and  _432
REMARK  182  A    between atoms: _435  and  _437
REMARK  183  A    between atoms: _437  and  _438
REMARK  184  A    between atoms: _437  and  _440
REMARK  185  A    between atoms: _440  and  _441
REMARK  186  A    between atoms: _447  and  _449
REMARK  187  A    between atoms: _449  and  _450
REMARK  188  A    between atoms: _449  and  _452
REMARK  189  A    between atoms: _452  and  _453
REMARK  190  A    between atoms: _456  and  _458
REMARK  191  A    between atoms: _458  and  _459
REMARK  192  A    between atoms: _458  and  _461
REMARK  193  A    between atoms: _461  and  _462
REMARK  194  A    between atoms: _465  and  _467
REMARK  195  A    between atoms: _467  and  _468
REMARK  196  A    between atoms: _467  and  _470
REMARK  197  A    between atoms: _470  and  _471
REMARK  198  A    between atoms: _477  and  _479
REMARK  199  A    between atoms: _479  and  _480
REMARK  200  A    between atoms: _479  and  _482
REMARK  201  A    between atoms: _482  and  _483
REMARK  202  A    between atoms: _483  and  _484
REMARK  203  A    between atoms: _486  and  _488
REMARK  204  A    between atoms: _488  and  _489
REMARK  205  A    between atoms: _488  and  _491
REMARK  206  A    between atoms: _491  and  _492
REMARK  207  A    between atoms: _492  and  _493
REMARK  208  A    between atoms: _493  and  _494
REMARK  209  A    between atoms: _494  and  _495
REMARK  210  A    between atoms: _499  and  _501
REMARK  211  A    between atoms: _501  and  _502
REMARK  212  A    between atoms: _501  and  _504
REMARK  213  A    between atoms: _504  and  _505
REMARK  214  A    between atoms: _511  and  _513
REMARK  215  A    between atoms: _513  and  _514
REMARK  216  A    between atoms: _513  and  _516
REMARK  217  A    between atoms: _516  and  _517
REMARK  218  A    between atoms: _520  and  _522
REMARK  219  A    between atoms: _522  and  _523
REMARK  220  A    between atoms: _522  and  _525
REMARK  221  A    between atoms: _528  and  _530
REMARK  222  A    between atoms: _530  and  _531
REMARK  223  A    between atoms: _530  and  _533
REMARK  224  A    between atoms: _533  and  _534
REMARK  225  A    between atoms: _539  and  _541
REMARK  226  A    between atoms: _541  and  _542
REMARK  227  A    between atoms: _541  and  _544
REMARK  228  A    between atoms: _547  and  _549
REMARK  229  A    between atoms: _549  and  _550
REMARK  230  A    between atoms: _549  and  _552
REMARK  231  A    between atoms: _552  and  _553
REMARK  232  A    between atoms: _556  and  _558
REMARK  233  A    between atoms: _558  and  _559
REMARK  234  A    between atoms: _558  and  _561
REMARK  235  A    between atoms: _561  and  _562
REMARK  236  A    between atoms: _565  and  _567
REMARK  237  A    between atoms: _567  and  _568
REMARK  238  A    between atoms: _567  and  _570
REMARK  239  A    between atoms: _570  and  _571
REMARK  240  A    between atoms: _571  and  _572
REMARK  241  A    between atoms: _574  and  _576
REMARK  242  A    between atoms: _576  and  _577
REMARK  243  A    between atoms: _576  and  _579
REMARK  244  A    between atoms: _579  and  _580
REMARK  245  A    between atoms: _582  and  _584
REMARK  246  A    between atoms: _584  and  _585
REMARK  247  A    between atoms: _584  and  _587
REMARK  248  A    between atoms: _587  and  _588
REMARK  249  A    between atoms: _591  and  _593
REMARK  250  A    between atoms: _593  and  _594
REMARK  251  A    between atoms: _593  and  _596
REMARK  252  A    between atoms: _596  and  _597
REMARK  253  A    between atoms: _602  and  _604
REMARK  254  A    between atoms: _604  and  _605
REMARK  255  A    between atoms: _604  and  _607
REMARK  256  A    between atoms: _607  and  _608
REMARK  257  A    between atoms: _611  and  _613
REMARK  258  A    between atoms: _613  and  _614
REMARK  259  A    between atoms: _613  and  _616
REMARK  260  A    between atoms: _616  and  _617
REMARK  261  A    between atoms: _620  and  _622
REMARK  262  A    between atoms: _622  and  _623
REMARK  263  A    between atoms: _622  and  _625
REMARK  264  A    between atoms: _625  and  _626
REMARK  265  A    between atoms: _626  and  _627
REMARK  266  A    between atoms: _632  and  _634
REMARK  267  A    between atoms: _634  and  _635
REMARK  268  A    between atoms: _634  and  _637
REMARK  269  A    between atoms: _637  and  _638
REMARK  270  A    between atoms: _641  and  _643
REMARK  271  A    between atoms: _643  and  _644
REMARK  272  A    between atoms: _643  and  _646
REMARK  273  A    between atoms: _646  and  _647
REMARK  274  A    between atoms: _652  and  _653
REMARK                            x       y       z     vdW  Elec       q    Type
REMARK                         _______ _______ _______ _____ _____    ______ ____
ROOT
ATOM      1  CA  LEU A   2      16.715  21.264  25.100  0.00  0.00    +0.149 C 
ENDROOT
BRANCH   1   4
ATOM      2  C   LEU A   1      14.996  22.229  26.530  0.00  0.00    +0.238 C 
ATOM      3  O   LEU A   1      15.160  21.365  27.389  0.00  0.00    -0.274 OA
ATOM      4  N   LEU A   2      15.700  22.268  25.403  0.00  0.00    -0.297 N 
ATOM      5  H   LEU A   2      15.523  23.033  24.721  0.00  0.00    +0.150 HD
BRANCH   2   6
ATOM      6  CA  LEU A   1      13.956  23.333  26.721  0.00  0.00    +0.145 C 
BRANCH   6   7
ATOM      7  N   LEU A   1      14.599  24.629  26.549  0.00  0.00    -0.238 NA
ATOM      8  H   LEU A   1      14.228  25.288  25.835  0.00  0.00    +0.142 HD
ENDBRANCH   6   7
BRANCH   6   9
ATOM      9  CB  LEU A   1      12.816  23.178  25.711  0.00  0.00    +0.026 C 
BRANCH   9  10
ATOM     10  CG  LEU A   1      11.784  22.055  25.886  0.00  0.00    +0.002 C 
ATOM     11  CD2 LEU A   1      11.664  21.697  27.359  0.00  0.00    +0.000 C 
ATOM     12  CD1 LEU A   1      12.181  20.835  25.072  0.00  0.00    +0.000 C 
ENDBRANCH   9  10
ENDBRANCH   6   9
ENDBRANCH   2   6
ENDBRANCH   1   4
BRANCH   1  13
ATOM     13  C   LEU A   2      17.831  21.257  26.136  0.00  0.00    +0.241 C 
ATOM     14  N   GLN A   3      18.201  22.440  26.602  0.00  0.00    -0.298 N 
ATOM     15  H   GLN A   3      17.732  23.300  26.254  0.00  0.00    +0.150 HD
ATOM     16  O   LEU A   2      18.348  20.205  26.507  0.00  0.00    -0.273 OA
BRANCH  14  17
ATOM     17  CA  GLN A   3      19.253  22.548  27.592  0.00  0.00    +0.137 C 
BRANCH  17  18
ATOM     18  C   GLN A   3      18.810  21.912  28.910  0.00  0.00    +0.227 C 
ATOM     19  O   GLN A   3      19.609  21.279  29.602  0.00  0.00    -0.286 OA
ENDBRANCH  17  18
BRANCH  17  20
ATOM     20  CB  GLN A   3      19.615  24.019  27.798  0.00  0.00    +0.037 C 
BRANCH  20  21
ATOM     21  CG  GLN A   3      20.849  24.237  28.636  0.00  0.00    +0.087 C 
BRANCH  21  22
ATOM     22  CD  GLN A   3      21.280  25.685  28.648  0.00  0.00    +0.219 C 
ATOM     23  OE1 GLN A   3      22.235  26.058  29.339  0.00  0.00    -0.275 OA
ATOM     24  NE2 GLN A   3      20.582  26.515  27.877  0.00  0.00    -0.329 N 
ATOM     25 HE21 GLN A   3      20.833  27.524  27.839  0.00  0.00    +0.145 HD
ATOM     26 HE22 GLN A   3      19.786  26.155  27.313  0.00  0.00    +0.145 HD
ENDBRANCH  21  22
ENDBRANCH  20  21
ENDBRANCH  17  20
ENDBRANCH  14  17
ENDBRANCH   1  13
BRANCH   1  27
ATOM     27  CB  LEU A   2      17.307  21.509  23.711  0.00  0.00    +0.029 C 
BRANCH  27  28
ATOM     28  CG  LEU A   2      16.379  21.268  22.519  0.00  0.00    +0.002 C 
ATOM     29  CD2 LEU A   2      15.867  19.828  22.544  0.00  0.00    +0.000 C 
ATOM     30  CD1 LEU A   2      17.138  21.552  21.225  0.00  0.00    +0.000 C 
ENDBRANCH  27  28
ENDBRANCH   1  27
TORSDOF 13
REMARK  Name = ../refined-set-2016/2i4j/2i4j_pocket.pdb
REMARK  274 active torsions:
REMARK  status: ('A' for Active; 'I' for Inactive)
REMARK    1  A    between atoms: _1  and  _3
REMARK    2  A    between atoms: _3  and  _4
REMARK    3  A    between atoms: _3  and  _6
REMARK    4  A    between atoms: _6  and  _7
REMARK    5  A    between atoms: _12  and  _13
REMARK    6  A    between atoms: _15  and  _17
REMARK    7  A    between atoms: _17  and  _18
REMARK    8  A    between atoms: _17  and  _20
REMARK    9  A    between atoms: _20  and  _21
REMARK   10  A    between atoms: _23  and  _25
REMARK   11  A    between atoms: _25  and  _26
REMARK   12  A    between atoms: _25  and  _28
REMARK   13  A    between atoms: _28  and  _29
REMARK   14  A    between atoms: _36  and  _37
REMARK   15  A    between atoms: _42  and  _44
REMARK   16  A    between atoms: _44  and  _45
REMARK   17  A    between atoms: _44  and  _47
REMARK   18  A    between atoms: _47  and  _48
REMARK   19  A    between atoms: _51  and  _53
REMARK   20  A    between atoms: _53  and  _54
REMARK   21  A    between atoms: _53  and  _56
REMARK   22  A    between atoms: _56  and  _57
REMARK   23  A    between atoms: _60  and  _62
REMARK   24  A    between atoms: _62  and  _63
REMARK   25  A    between atoms: _62  and  _65
REMARK   26  A    between atoms: _65  and  _66
REMARK   27  A    between atoms: _72  and  _74
REMARK   28  A    between atoms: _74  and  _75
REMARK   29  A    between atoms: _74  and  _77
REMARK   30  A    between atoms: _77  and  _78
REMARK   31  A    between atoms: _78  and  _79
REMARK   32  A    between atoms: _84  and  _86
REMARK   33  A    between atoms: _86  and  _87
REMARK   34  A    between atoms: _89  and  _91
REMARK   35  A    between atoms: _91  and  _92
REMARK   36  A    between atoms: _91  and  _94
REMARK   37  A    between atoms: _96  and  _98
REMARK   38  A    between atoms: _98  and  _99
REMARK   39  A    between atoms: _98  and  _101
REMARK   40  A    between atoms: _101  and  _102
REMARK   41  A    between atoms: _102  and  _103
REMARK   42  A    between atoms: _108  and  _110
REMARK   43  A    between atoms: _110  and  _111
REMARK   44  A    between atoms: _110  and  _113
REMARK   45  A    between atoms: _113  and  _114
REMARK   46  A    between atoms: _120  and  _122
REMARK   47  A    between atoms: _122  and  _123
REMARK   48  A    between atoms: _122  and  _125
REMARK   49  A    between atoms: _125  and  _126
REMARK   50  A    between atoms: _126  and  _127
REMARK   51  A    between atoms: _127  and  _128
REMARK   52  A    between atoms: _137  and  _139
REMARK   53  A    between atoms: _139  and  _140
REMARK   54  A    between atoms: _139  and  _142
REMARK   55  A    between atoms: _142  and  _143
REMARK   56  A    between atoms: _145  and  _147
REMARK   57  A    between atoms: _147  and  _148
REMARK   58  A    between atoms: _147  and  _150
REMARK   59  A    between atoms: _153  and  _155
REMARK   60  A    between atoms: _155  and  _156
REMARK   61  A    between atoms: _155  and  _158
REMARK   62  A    between atoms: _158  and  _159
REMARK   63  A    between atoms: _159  and  _160
REMARK   64  A    between atoms: _163  and  _165
REMARK   65  A    between atoms: _165  and  _166
REMARK   66  A    between atoms: _169  and  _171
REMARK   67  A    between atoms: _171  and  _172
REMARK   68  A    between atoms: _171  and  _174
REMARK   69  A    between atoms: _177  and  _179
REMARK   70  A    between atoms: _179  and  _180
REMARK   71  A    between atoms: _179  and  _182
REMARK   72  A    between atoms: _182  and  _183
REMARK   73  A    between atoms: _183  and  _184
REMARK   74  A    between atoms: _189  and  _191
REMARK   75  A    between atoms: _191  and  _192
REMARK   76  A    between atoms: _191  and  _194
REMARK   77  A    between atoms: _194  and  _195
REMARK   78  A    between atoms: _195  and  _196
REMARK   79  A    between atoms: _199  and  _201
REMARK   80  A    between atoms: _201  and  _202
REMARK   81  A    between atoms: _201  and  _204
REMARK   82  A    between atoms: _204  and  _205
REMARK   83  A    between atoms: _208  and  _210
REMARK   84  A    between atoms: _210  and  _211
REMARK   85  A    between atoms: _210  and  _213
REMARK   86  A    between atoms: _213  and  _214
REMARK   87  A    between atoms: _217  and  _219
REMARK   88  A    between atoms: _219  and  _220
REMARK   89  A    between atoms: _219  and  _222
REMARK   90  A    between atoms: _222  and  _223
REMARK   91  A    between atoms: _228  and  _229
REMARK   92  A    between atoms: _231  and  _233
REMARK   93  A    between atoms: _233  and  _234
REMARK   94  A    between atoms: _233  and  _236
REMARK   95  A    between atoms: _239  and  _241
REMARK   96  A    between atoms: _241  and  _242
REMARK   97  A    between atoms: _241  and  _244
REMARK   98  A    between atoms: _244  and  _245
REMARK   99  A    between atoms: _250  and  _252
REMARK  100  A    between atoms: _252  and  _253
REMARK  101  A    between atoms: _252  and  _255
REMARK  102  A    between atoms: _255  and  _256
REMARK  103  A    between atoms: _256  and  _257
REMARK  104  A    between atoms: _260  and  _262
REMARK  105  A    between atoms: _262  and  _263
REMARK  106  A    between atoms: _262  and  _265
REMARK  107  A    between atoms: _265  and  _266
REMARK  108  A    between atoms: _269  and  _271
REMARK  109  A    between atoms: _271  and  _272
REMARK  110  A    between atoms: _271  and  _274
REMARK  111  A    between atoms: _274  and  _275
REMARK  112  A    between atoms: _278  and  _280
REMARK  113  A    between atoms: _280  and  _281
REMARK  114  A    between atoms: _280  and  _283
REMARK  115  A    between atoms: _283  and  _284
REMARK  116  A    between atoms: _289  and  _290
REMARK  117  A    between atoms: _292  and  _294
REMARK  118  A    between atoms: _294  and  _295
REMARK  119  A    between atoms: _294  and  _297
REMARK  120  A    between atoms: _297  and  _298
REMARK  121  A    between atoms: _301  and  _303
REMARK  122  A    between atoms: _303  and  _304
REMARK  123  A    between atoms: _303  and  _306
REMARK  124  A    between atoms: _306  and  _307
REMARK  125  A    between atoms: _307  and  _308
REMARK  126  A    between atoms: _310  and  _312
REMARK  127  A    between atoms: _312  and  _313
REMARK  128  A    between atoms: _312  and  _315
REMARK  129  A    between atoms: _315  and  _316
REMARK  130  A    between atoms: _319  and  _321
REMARK  131  A    between atoms: _321  and  _322
REMARK  132  A    between atoms: _325  and  _327
REMARK  133  A    between atoms: _327  and  _328
REMARK  134  A    between atoms: _327  and  _330
REMARK  135  A    between atoms: _330  and  _331
REMARK  136  A    between atoms: _333  and  _335
REMARK  137  A    between atoms: _335  and  _336
REMARK  138  A    between atoms: _335  and  _338
REMARK  139  A    between atoms: _338  and  _339
REMARK  140  A    between atoms: _342  and  _344
REMARK  141  A    between atoms: _344  and  _345
REMARK  142  A    between atoms: _344  and  _347
REMARK  143  A    between atoms: _347  and  _348
REMARK  144  A    between atoms: _348  and  _349
REMARK  145  A    between atoms: _351  and  _353
REMARK  146  A    between atoms: _353  and  _354
REMARK  147  A    between atoms: _356  and  _358
REMARK  148  A    between atoms: _358  and  _359
REMARK  149  A    between atoms: _358  and  _361
REMARK  150  A    between atoms: _364  and  _366
REMARK  151  A    between atoms: _366  and  _367
REMARK  152  A    between atoms: _366  and  _369
REMARK  153  A    between atoms: _369  and  _370
REMARK  154  A    between atoms: _373  and  _375
REMARK  155  A    between atoms: _375  and  _376
REMARK  156  A    between atoms: _375  and  _378
REMARK  157  A    between atoms: _378  and  _379
REMARK  158  A    between atoms: _382  and  _384
REMARK  159  A    between atoms: _384  and  _385
REMARK  160  A    between atoms: _384  and  _387
REMARK  161  A    between atoms: _387  and  _388
REMARK  162  A    between atoms: _390  and  _392
REMARK  163  A    between atoms: _392  and  _393
REMARK  164  A    between atoms: _392  and  _395
REMARK  165  A    between atoms: _395  and  _396
REMARK  166  A    between atoms: _396  and  _397
REMARK  167  A    between atoms: _400  and  _402
REMARK  168  A    between atoms: _402  and  _403
REMARK  169  A    between atoms: _405  and  _407
REMARK  170  A    between atoms: _407  and  _408
REMARK  171  A    between atoms: _407  and  _410
REMARK  172  A    between atoms: _410  and  _411
REMARK  173  A    between atoms: _417  and  _419
REMARK  174  A    between atoms: _419  and  _420
REMARK  175  A    between atoms: _419  and  _422
REMARK  176  A    between atoms: _422  and  _423
REMARK  177  A    between atoms: _423  and  _424
REMARK  178  A    between atoms: _426  and  _428
REMARK  179  A    between atoms: _428  and  _429
REMARK  180  A    between atoms: _428  and  _431
REMARK  181  A    between atoms: _431  and  _432
REMARK  182  A    between atoms: _435  and  _437
REMARK  183  A    between atoms: _437  and  _438
REMARK  184  A    between atoms: _437  and  _440
REMARK  185  A    between atoms: _440  and  _441
REMARK  186  A    between atoms: _447  and  _449
REMARK  187  A    between atoms: _449  and  _450
REMARK  188  A    between atoms: _449  and  _452
REMARK  189  A    between atoms: _452  and  _453
REMARK  190  A    between atoms: _456  and  _458
REMARK  191  A    between atoms: _458  and  _459
REMARK  192  A    between atoms: _458  and  _461
REMARK  193  A    between atoms: _461  and  _462
REMARK  194  A    between atoms: _465  and  _467
REMARK  195  A    between atoms: _467  and  _468
REMARK  196  A    between atoms: _467  and  _470
REMARK  197  A    between atoms: _470  and  _471
REMARK  198  A    between atoms: _477  and  _479
REMARK  199  A    between atoms: _479  and  _480
REMARK  200  A    between atoms: _479  and  _482
REMARK  201  A    between atoms: _482  and  _483
REMARK  202  A    between atoms: _483  and  _484
REMARK  203  A    between atoms: _486  and  _488
REMARK  204  A    between atoms: _488  and  _489
REMARK  205  A    between atoms: _488  and  _491
REMARK  206  A    between atoms: _491  and  _492
REMARK  207  A    between atoms: _492  and  _493
REMARK  208  A    between atoms: _493  and  _494
REMARK  209  A    between atoms: _494  and  _495
REMARK  210  A    between atoms: _499  and  _501
REMARK  211  A    between atoms: _501  and  _502
REMARK  212  A    between atoms: _501  and  _504
REMARK  213  A    between atoms: _504  and  _505
REMARK  214  A    between atoms: _511  and  _513
REMARK  215  A    between atoms: _513  and  _514
REMARK  216  A    between atoms: _513  and  _516
REMARK  217  A    between atoms: _516  and  _517
REMARK  218  A    between atoms: _520  and  _522
REMARK  219  A    between atoms: _522  and  _523
REMARK  220  A    between atoms: _522  and  _525
REMARK  221  A    between atoms: _528  and  _530
REMARK  222  A    between atoms: _530  and  _531
REMARK  223  A    between atoms: _530  and  _533
REMARK  224  A    between atoms: _533  and  _534
REMARK  225  A    between atoms: _539  and  _541
REMARK  226  A    between atoms: _541  and  _542
REMARK  227  A    between atoms: _541  and  _544
REMARK  228  A    between atoms: _547  and  _549
REMARK  229  A    between atoms: _549  and  _550
REMARK  230  A    between atoms: _549  and  _552
REMARK  231  A    between atoms: _552  and  _553
REMARK  232  A    between atoms: _556  and  _558
REMARK  233  A    between atoms: _558  and  _559
REMARK  234  A    between atoms: _558  and  _561
REMARK  235  A    between atoms: _561  and  _562
REMARK  236  A    between atoms: _565  and  _567
REMARK  237  A    between atoms: _567  and  _568
REMARK  238  A    between atoms: _567  and  _570
REMARK  239  A    between atoms: _570  and  _571
REMARK  240  A    between atoms: _571  and  _572
REMARK  241  A    between atoms: _574  and  _576
REMARK  242  A    between atoms: _576  and  _577
REMARK  243  A    between atoms: _576  and  _579
REMARK  244  A    between atoms: _579  and  _580
REMARK  245  A    between atoms: _582  and  _584
REMARK  246  A    between atoms: _584  and  _585
REMARK  247  A    between atoms: _584  and  _587
REMARK  248  A    between atoms: _587  and  _588
REMARK  249  A    between atoms: _591  and  _593
REMARK  250  A    between atoms: _593  and  _594
REMARK  251  A    between atoms: _593  and  _596
REMARK  252  A    between atoms: _596  and  _597
REMARK  253  A    between atoms: _602  and  _604
REMARK  254  A    between atoms: _604  and  _605
REMARK  255  A    between atoms: _604  and  _607
REMARK  256  A    between atoms: _607  and  _608
REMARK  257  A    between atoms: _611  and  _613
REMARK  258  A    between atoms: _613  and  _614
REMARK  259  A    between atoms: _613  and  _616
REMARK  260  A    between atoms: _616  and  _617
REMARK  261  A    between atoms: _620  and  _622
REMARK  262  A    between atoms: _622  and  _623
REMARK  263  A    between atoms: _622  and  _625
REMARK  264  A    between atoms: _625  and  _626
REMARK  265  A    between atoms: _626  and  _627
REMARK  266  A    between atoms: _632  and  _634
REMARK  267  A    between atoms: _634  and  _635
REMARK  268  A    between atoms: _634  and  _637
REMARK  269  A    between atoms: _637  and  _638
REMARK  270  A    between atoms: _641  and  _643
REMARK  271  A    between atoms: _643  and  _644
REMARK  272  A    between atoms: _643  and  _646
REMARK  273  A    between atoms: _646  and  _647
REMARK  274  A    between atoms: _652  and  _653
REMARK                            x       y       z     vdW  Elec       q    Type
REMARK                         _______ _______ _______ _____ _____    ______ ____
ROOT
ATOM      1  CA  TYR A   2      20.181  17.741  28.753  0.00  0.00    +0.141 C 
ENDROOT
BRANCH   1   4
ATOM      2  C   ILE A   1      17.879  17.462  29.392  0.00  0.00    +0.238 C 
ATOM      3  O   ILE A   1      18.113  16.408  29.983  0.00  0.00    -0.274 OA
ATOM      4  N   TYR A   2      18.780  18.137  28.745  0.00  0.00    -0.298 N 
ATOM      5  H   TYR A   2      18.494  18.981  28.208  0.00  0.00    +0.150 HD
BRANCH   2   6
ATOM      6  CA  ILE A   1      16.441  18.027  29.265  0.00  0.00    +0.145 C 
BRANCH   6   7
ATOM      7  N   ILE A   1      16.444  19.418  29.473  0.00  0.00    -0.238 NA
ATOM      8  H   ILE A   1      15.922  20.022  28.807  0.00  0.00    +0.142 HD
ENDBRANCH   6   7
BRANCH   6   9
ATOM      9  CB  ILE A   1      15.761  17.778  27.918  0.00  0.00    +0.025 C 
ATOM     10  CG2 ILE A   1      16.250  16.475  27.294  0.00  0.00    +0.002 C 
BRANCH   9  11
ATOM     11  CG1 ILE A   1      14.233  17.708  28.123  0.00  0.00    +0.002 C 
ATOM     12  CD1 ILE A   1      13.436  17.662  26.836  0.00  0.00    +0.000 C 
ENDBRANCH   9  11
ENDBRANCH   6   9
ENDBRANCH   2   6
ENDBRANCH   1   4
BRANCH   1  13
ATOM     13  C   TYR A   2      20.906  18.043  30.053  0.00  0.00    +0.227 C 
ATOM     14  O   TYR A   2      20.711  19.086  30.672  0.00  0.00    -0.286 OA
ENDBRANCH   1  13
BRANCH   1  15
ATOM     15  CB  TYR A   2      20.934  18.403  27.602  0.00  0.00    +0.054 C 
BRANCH  15  16
ATOM     16  CG  TYR A   2      20.801  17.644  26.311  0.00  0.00    -0.020 A 
ATOM     17  CD2 TYR A   2      21.198  16.314  26.230  0.00  0.00    -0.001 A 
ATOM     18  CE2 TYR A   2      21.039  15.589  25.064  0.00  0.00    +0.036 A 
ATOM     19  CZ  TYR A   2      20.478  16.195  23.953  0.00  0.00    +0.134 A 
ATOM     20  CE1 TYR A   2      20.082  17.521  24.000  0.00  0.00    +0.036 A 
ATOM     21  CD1 TYR A   2      20.246  18.239  25.182  0.00  0.00    -0.001 A 
BRANCH  19  22
ATOM     22  OH  TYR A   2      20.309  15.456  22.808  0.00  0.00    -0.506 OA
ATOM     23  HH  TYR A   2      19.347  15.422  22.578  0.00  0.00    +0.292 HD
ENDBRANCH  19  22
ENDBRANCH  15  16
ENDBRANCH   1  15
TORSDOF 9
REMARK  Name = ../refined-set-2016/2i4j/2i4j_pocket.pdb
REMARK  274 active torsions:
REMARK  status: ('A' for Active; 'I' for Inactive)
REMARK    1  A    between atoms: _1  and  _3
REMARK    2  A    between atoms: _3  and  _4
REMARK    3  A    between atoms: _3  and  _6
REMARK    4  A    between atoms: _6  and  _7
REMARK    5  A    between atoms: _12  and  _13
REMARK    6  A    between atoms: _15  and  _17
REMARK    7  A    between atoms: _17  and  _18
REMARK    8  A    between atoms: _17  and  _20
REMARK    9  A    between atoms: _20  and  _21
REMARK   10  A    between atoms: _23  and  _25
REMARK   11  A    between atoms: _25  and  _26
REMARK   12  A    between atoms: _25  and  _28
REMARK   13  A    between atoms: _28  and  _29
REMARK   14  A    between atoms: _36  and  _37
REMARK   15  A    between atoms: _42  and  _44
REMARK   16  A    between atoms: _44  and  _45
REMARK   17  A    between atoms: _44  and  _47
REMARK   18  A    between atoms: _47  and  _48
REMARK   19  A    between atoms: _51  and  _53
REMARK   20  A    between atoms: _53  and  _54
REMARK   21  A    between atoms: _53  and  _56
REMARK   22  A    between atoms: _56  and  _57
REMARK   23  A    between atoms: _60  and  _62
REMARK   24  A    between atoms: _62  and  _63
REMARK   25  A    between atoms: _62  and  _65
REMARK   26  A    between atoms: _65  and  _66
REMARK   27  A    between atoms: _72  and  _74
REMARK   28  A    between atoms: _74  and  _75
REMARK   29  A    between atoms: _74  and  _77
REMARK   30  A    between atoms: _77  and  _78
REMARK   31  A    between atoms: _78  and  _79
REMARK   32  A    between atoms: _84  and  _86
REMARK   33  A    between atoms: _86  and  _87
REMARK   34  A    between atoms: _89  and  _91
REMARK   35  A    between atoms: _91  and  _92
REMARK   36  A    between atoms: _91  and  _94
REMARK   37  A    between atoms: _96  and  _98
REMARK   38  A    between atoms: _98  and  _99
REMARK   39  A    between atoms: _98  and  _101
REMARK   40  A    between atoms: _101  and  _102
REMARK   41  A    between atoms: _102  and  _103
REMARK   42  A    between atoms: _108  and  _110
REMARK   43  A    between atoms: _110  and  _111
REMARK   44  A    between atoms: _110  and  _113
REMARK   45  A    between atoms: _113  and  _114
REMARK   46  A    between atoms: _120  and  _122
REMARK   47  A    between atoms: _122  and  _123
REMARK   48  A    between atoms: _122  and  _125
REMARK   49  A    between atoms: _125  and  _126
REMARK   50  A    between atoms: _126  and  _127
REMARK   51  A    between atoms: _127  and  _128
REMARK   52  A    between atoms: _137  and  _139
REMARK   53  A    between atoms: _139  and  _140
REMARK   54  A    between atoms: _139  and  _142
REMARK   55  A    between atoms: _142  and  _143
REMARK   56  A    between atoms: _145  and  _147
REMARK   57  A    between atoms: _147  and  _148
REMARK   58  A    between atoms: _147  and  _150
REMARK   59  A    between atoms: _153  and  _155
REMARK   60  A    between atoms: _155  and  _156
REMARK   61  A    between atoms: _155  and  _158
REMARK   62  A    between atoms: _158  and  _159
REMARK   63  A    between atoms: _159  and  _160
REMARK   64  A    between atoms: _163  and  _165
REMARK   65  A    between atoms: _165  and  _166
REMARK   66  A    between atoms: _169  and  _171
REMARK   67  A    between atoms: _171  and  _172
REMARK   68  A    between atoms: _171  and  _174
REMARK   69  A    between atoms: _177  and  _179
REMARK   70  A    between atoms: _179  and  _180
REMARK   71  A    between atoms: _179  and  _182
REMARK   72  A    between atoms: _182  and  _183
REMARK   73  A    between atoms: _183  and  _184
REMARK   74  A    between atoms: _189  and  _191
REMARK   75  A    between atoms: _191  and  _192
REMARK   76  A    between atoms: _191  and  _194
REMARK   77  A    between atoms: _194  and  _195
REMARK   78  A    between atoms: _195  and  _196
REMARK   79  A    between atoms: _199  and  _201
REMARK   80  A    between atoms: _201  and  _202
REMARK   81  A    between atoms: _201  and  _204
REMARK   82  A    between atoms: _204  and  _205
REMARK   83  A    between atoms: _208  and  _210
REMARK   84  A    between atoms: _210  and  _211
REMARK   85  A    between atoms: _210  and  _213
REMARK   86  A    between atoms: _213  and  _214
REMARK   87  A    between atoms: _217  and  _219
REMARK   88  A    between atoms: _219  and  _220
REMARK   89  A    between atoms: _219  and  _222
REMARK   90  A    between atoms: _222  and  _223
REMARK   91  A    between atoms: _228  and  _229
REMARK   92  A    between atoms: _231  and  _233
REMARK   93  A    between atoms: _233  and  _234
REMARK   94  A    between atoms: _233  and  _236
REMARK   95  A    between atoms: _239  and  _241
REMARK   96  A    between atoms: _241  and  _242
REMARK   97  A    between atoms: _241  and  _244
REMARK   98  A    between atoms: _244  and  _245
REMARK   99  A    between atoms: _250  and  _252
REMARK  100  A    between atoms: _252  and  _253
REMARK  101  A    between atoms: _252  and  _255
REMARK  102  A    between atoms: _255  and  _256
REMARK  103  A    between atoms: _256  and  _257
REMARK  104  A    between atoms: _260  and  _262
REMARK  105  A    between atoms: _262  and  _263
REMARK  106  A    between atoms: _262  and  _265
REMARK  107  A    between atoms: _265  and  _266
REMARK  108  A    between atoms: _269  and  _271
REMARK  109  A    between atoms: _271  and  _272
REMARK  110  A    between atoms: _271  and  _274
REMARK  111  A    between atoms: _274  and  _275
REMARK  112  A    between atoms: _278  and  _280
REMARK  113  A    between atoms: _280  and  _281
REMARK  114  A    between atoms: _280  and  _283
REMARK  115  A    between atoms: _283  and  _284
REMARK  116  A    between atoms: _289  and  _290
REMARK  117  A    between atoms: _292  and  _294
REMARK  118  A    between atoms: _294  and  _295
REMARK  119  A    between atoms: _294  and  _297
REMARK  120  A    between atoms: _297  and  _298
REMARK  121  A    between atoms: _301  and  _303
REMARK  122  A    between atoms: _303  and  _304
REMARK  123  A    between atoms: _303  and  _306
REMARK  124  A    between atoms: _306  and  _307
REMARK  125  A    between atoms: _307  and  _308
REMARK  126  A    between atoms: _310  and  _312
REMARK  127  A    between atoms: _312  and  _313
REMARK  128  A    between atoms: _312  and  _315
REMARK  129  A    between atoms: _315  and  _316
REMARK  130  A    between atoms: _319  and  _321
REMARK  131  A    between atoms: _321  and  _322
REMARK  132  A    between atoms: _325  and  _327
REMARK  133  A    between atoms: _327  and  _328
REMARK  134  A    between atoms: _327  and  _330
REMARK  135  A    between atoms: _330  and  _331
REMARK  136  A    between atoms: _333  and  _335
REMARK  137  A    between atoms: _335  and  _336
REMARK  138  A    between atoms: _335  and  _338
REMARK  139  A    between atoms: _338  and  _339
REMARK  140  A    between atoms: _342  and  _344
REMARK  141  A    between atoms: _344  and  _345
REMARK  142  A    between atoms: _344  and  _347
REMARK  143  A    between atoms: _347  and  _348
REMARK  144  A    between atoms: _348  and  _349
REMARK  145  A    between atoms: _351  and  _353
REMARK  146  A    between atoms: _353  and  _354
REMARK  147  A    between atoms: _356  and  _358
REMARK  148  A    between atoms: _358  and  _359
REMARK  149  A    between atoms: _358  and  _361
REMARK  150  A    between atoms: _364  and  _366
REMARK  151  A    between atoms: _366  and  _367
REMARK  152  A    between atoms: _366  and  _369
REMARK  153  A    between atoms: _369  and  _370
REMARK  154  A    between atoms: _373  and  _375
REMARK  155  A    between atoms: _375  and  _376
REMARK  156  A    between atoms: _375  and  _378
REMARK  157  A    between atoms: _378  and  _379
REMARK  158  A    between atoms: _382  and  _384
REMARK  159  A    between atoms: _384  and  _385
REMARK  160  A    between atoms: _384  and  _387
REMARK  161  A    between atoms: _387  and  _388
REMARK  162  A    between atoms: _390  and  _392
REMARK  163  A    between atoms: _392  and  _393
REMARK  164  A    between atoms: _392  and  _395
REMARK  165  A    between atoms: _395  and  _396
REMARK  166  A    between atoms: _396  and  _397
REMARK  167  A    between atoms: _400  and  _402
REMARK  168  A    between atoms: _402  and  _403
REMARK  169  A    between atoms: _405  and  _407
REMARK  170  A    between atoms: _407  and  _408
REMARK  171  A    between atoms: _407  and  _410
REMARK  172  A    between atoms: _410  and  _411
REMARK  173  A    between atoms: _417  and  _419
REMARK  174  A    between atoms: _419  and  _420
REMARK  175  A    between atoms: _419  and  _422
REMARK  176  A    between atoms: _422  and  _423
REMARK  177  A    between atoms: _423  and  _424
REMARK  178  A    between atoms: _426  and  _428
REMARK  179  A    between atoms: _428  and  _429
REMARK  180  A    between atoms: _428  and  _431
REMARK  181  A    between atoms: _431  and  _432
REMARK  182  A    between atoms: _435  and  _437
REMARK  183  A    between atoms: _437  and  _438
REMARK  184  A    between atoms: _437  and  _440
REMARK  185  A    between atoms: _440  and  _441
REMARK  186  A    between atoms: _447  and  _449
REMARK  187  A    between atoms: _449  and  _450
REMARK  188  A    between atoms: _449  and  _452
REMARK  189  A    between atoms: _452  and  _453
REMARK  190  A    between atoms: _456  and  _458
REMARK  191  A    between atoms: _458  and  _459
REMARK  192  A    between atoms: _458  and  _461
REMARK  193  A    between atoms: _461  and  _462
REMARK  194  A    between atoms: _465  and  _467
REMARK  195  A    between atoms: _467  and  _468
REMARK  196  A    between atoms: _467  and  _470
REMARK  197  A    between atoms: _470  and  _471
REMARK  198  A    between atoms: _477  and  _479
REMARK  199  A    between atoms: _479  and  _480
REMARK  200  A    between atoms: _479  and  _482
REMARK  201  A    between atoms: _482  and  _483
REMARK  202  A    between atoms: _483  and  _484
REMARK  203  A    between atoms: _486  and  _488
REMARK  204  A    between atoms: _488  and  _489
REMARK  205  A    between atoms: _488  and  _491
REMARK  206  A    between atoms: _491  and  _492
REMARK  207  A    between atoms: _492  and  _493
REMARK  208  A    between atoms: _493  and  _494
REMARK  209  A    between atoms: _494  and  _495
REMARK  210  A    between atoms: _499  and  _501
REMARK  211  A    between atoms: _501  and  _502
REMARK  212  A    between atoms: _501  and  _504
REMARK  213  A    between atoms: _504  and  _505
REMARK  214  A    between atoms: _511  and  _513
REMARK  215  A    between atoms: _513  and  _514
REMARK  216  A    between atoms: _513  and  _516
REMARK  217  A    between atoms: _516  and  _517
REMARK  218  A    between atoms: _520  and  _522
REMARK  219  A    between atoms: _522  and  _523
REMARK  220  A    between atoms: _522  and  _525
REMARK  221  A    between atoms: _528  and  _530
REMARK  222  A    between atoms: _530  and  _531
REMARK  223  A    between atoms: _530  and  _533
REMARK  224  A    between atoms: _533  and  _534
REMARK  225  A    between atoms: _539  and  _541
REMARK  226  A    between atoms: _541  and  _542
REMARK  227  A    between atoms: _541  and  _544
REMARK  228  A    between atoms: _547  and  _549
REMARK  229  A    between atoms: _549  and  _550
REMARK  230  A    between atoms: _549  and  _552
REMARK  231  A    between atoms: _552  and  _553
REMARK  232  A    between atoms: _556  and  _558
REMARK  233  A    between atoms: _558  and  _559
REMARK  234  A    between atoms: _558  and  _561
REMARK  235  A    between atoms: _561  and  _562
REMARK  236  A    between atoms: _565  and  _567
REMARK  237  A    between atoms: _567  and  _568
REMARK  238  A    between atoms: _567  and  _570
REMARK  239  A    between atoms: _570  and  _571
REMARK  240  A    between atoms: _571  and  _572
REMARK  241  A    between atoms: _574  and  _576
REMARK  242  A    between atoms: _576  and  _577
REMARK  243  A    between atoms: _576  and  _579
REMARK  244  A    between atoms: _579  and  _580
REMARK  245  A    between atoms: _582  and  _584
REMARK  246  A    between atoms: _584  and  _585
REMARK  247  A    between atoms: _584  and  _587
REMARK  248  A    between atoms: _587  and  _588
REMARK  249  A    between atoms: _591  and  _593
REMARK  250  A    between atoms: _593  and  _594
REMARK  251  A    between atoms: _593  and  _596
REMARK  252  A    between atoms: _596  and  _597
REMARK  253  A    between atoms: _602  and  _604
REMARK  254  A    between atoms: _604  and  _605
REMARK  255  A    between atoms: _604  and  _607
REMARK  256  A    between atoms: _607  and  _608
REMARK  257  A    between atoms: _611  and  _613
REMARK  258  A    between atoms: _613  and  _614
REMARK  259  A    between atoms: _613  and  _616
REMARK  260  A    between atoms: _616  and  _617
REMARK  261  A    between atoms: _620  and  _622
REMARK  262  A    between atoms: _622  and  _623
REMARK  263  A    between atoms: _622  and  _625
REMARK  264  A    between atoms: _625  and  _626
REMARK  265  A    between atoms: _626  and  _627
REMARK  266  A    between atoms: _632  and  _634
REMARK  267  A    between atoms: _634  and  _635
REMARK  268  A    between atoms: _634  and  _637
REMARK  269  A    between atoms: _637  and  _638
REMARK  270  A    between atoms: _641  and  _643
REMARK  271  A    between atoms: _643  and  _644
REMARK  272  A    between atoms: _643  and  _646
REMARK  273  A    between atoms: _646  and  _647
REMARK  274  A    between atoms: _652  and  _653
REMARK                            x       y       z     vdW  Elec       q    Type
REMARK                         _______ _______ _______ _____ _____    ______ ____
ROOT
ATOM      1  O   HOH     1      16.145  12.930  25.935  0.00  0.00    +0.000 OA
ENDROOT
TORSDOF 0
REMARK  Name = ../refined-set-2016/2i4j/2i4j_pocket.pdb
REMARK  274 active torsions:
REMARK  status: ('A' for Active; 'I' for Inactive)
REMARK    1  A    between atoms: _1  and  _3
REMARK    2  A    between atoms: _3  and  _4
REMARK    3  A    between atoms: _3  and  _6
REMARK    4  A    between atoms: _6  and  _7
REMARK    5  A    between atoms: _12  and  _13
REMARK    6  A    between atoms: _15  and  _17
REMARK    7  A    between atoms: _17  and  _18
REMARK    8  A    between atoms: _17  and  _20
REMARK    9  A    between atoms: _20  and  _21
REMARK   10  A    between atoms: _23  and  _25
REMARK   11  A    between atoms: _25  and  _26
REMARK   12  A    between atoms: _25  and  _28
REMARK   13  A    between atoms: _28  and  _29
REMARK   14  A    between atoms: _36  and  _37
REMARK   15  A    between atoms: _42  and  _44
REMARK   16  A    between atoms: _44  and  _45
REMARK   17  A    between atoms: _44  and  _47
REMARK   18  A    between atoms: _47  and  _48
REMARK   19  A    between atoms: _51  and  _53
REMARK   20  A    between atoms: _53  and  _54
REMARK   21  A    between atoms: _53  and  _56
REMARK   22  A    between atoms: _56  and  _57
REMARK   23  A    between atoms: _60  and  _62
REMARK   24  A    between atoms: _62  and  _63
REMARK   25  A    between atoms: _62  and  _65
REMARK   26  A    between atoms: _65  and  _66
REMARK   27  A    between atoms: _72  and  _74
REMARK   28  A    between atoms: _74  and  _75
REMARK   29  A    between atoms: _74  and  _77
REMARK   30  A    between atoms: _77  and  _78
REMARK   31  A    between atoms: _78  and  _79
REMARK   32  A    between atoms: _84  and  _86
REMARK   33  A    between atoms: _86  and  _87
REMARK   34  A    between atoms: _89  and  _91
REMARK   35  A    between atoms: _91  and  _92
REMARK   36  A    between atoms: _91  and  _94
REMARK   37  A    between atoms: _96  and  _98
REMARK   38  A    between atoms: _98  and  _99
REMARK   39  A    between atoms: _98  and  _101
REMARK   40  A    between atoms: _101  and  _102
REMARK   41  A    between atoms: _102  and  _103
REMARK   42  A    between atoms: _108  and  _110
REMARK   43  A    between atoms: _110  and  _111
REMARK   44  A    between atoms: _110  and  _113
REMARK   45  A    between atoms: _113  and  _114
REMARK   46  A    between atoms: _120  and  _122
REMARK   47  A    between atoms: _122  and  _123
REMARK   48  A    between atoms: _122  and  _125
REMARK   49  A    between atoms: _125  and  _126
REMARK   50  A    between atoms: _126  and  _127
REMARK   51  A    between atoms: _127  and  _128
REMARK   52  A    between atoms: _137  and  _139
REMARK   53  A    between atoms: _139  and  _140
REMARK   54  A    between atoms: _139  and  _142
REMARK   55  A    between atoms: _142  and  _143
REMARK   56  A    between atoms: _145  and  _147
REMARK   57  A    between atoms: _147  and  _148
REMARK   58  A    between atoms: _147  and  _150
REMARK   59  A    between atoms: _153  and  _155
REMARK   60  A    between atoms: _155  and  _156
REMARK   61  A    between atoms: _155  and  _158
REMARK   62  A    between atoms: _158  and  _159
REMARK   63  A    between atoms: _159  and  _160
REMARK   64  A    between atoms: _163  and  _165
REMARK   65  A    between atoms: _165  and  _166
REMARK   66  A    between atoms: _169  and  _171
REMARK   67  A    between atoms: _171  and  _172
REMARK   68  A    between atoms: _171  and  _174
REMARK   69  A    between atoms: _177  and  _179
REMARK   70  A    between atoms: _179  and  _180
REMARK   71  A    between atoms: _179  and  _182
REMARK   72  A    between atoms: _182  and  _183
REMARK   73  A    between atoms: _183  and  _184
REMARK   74  A    between atoms: _189  and  _191
REMARK   75  A    between atoms: _191  and  _192
REMARK   76  A    between atoms: _191  and  _194
REMARK   77  A    between atoms: _194  and  _195
REMARK   78  A    between atoms: _195  and  _196
REMARK   79  A    between atoms: _199  and  _201
REMARK   80  A    between atoms: _201  and  _202
REMARK   81  A    between atoms: _201  and  _204
REMARK   82  A    between atoms: _204  and  _205
REMARK   83  A    between atoms: _208  and  _210
REMARK   84  A    between atoms: _210  and  _211
REMARK   85  A    between atoms: _210  and  _213
REMARK   86  A    between atoms: _213  and  _214
REMARK   87  A    between atoms: _217  and  _219
REMARK   88  A    between atoms: _219  and  _220
REMARK   89  A    between atoms: _219  and  _222
REMARK   90  A    between atoms: _222  and  _223
REMARK   91  A    between atoms: _228  and  _229
REMARK   92  A    between atoms: _231  and  _233
REMARK   93  A    between atoms: _233  and  _234
REMARK   94  A    between atoms: _233  and  _236
REMARK   95  A    between atoms: _239  and  _241
REMARK   96  A    between atoms: _241  and  _242
REMARK   97  A    between atoms: _241  and  _244
REMARK   98  A    between atoms: _244  and  _245
REMARK   99  A    between atoms: _250  and  _252
REMARK  100  A    between atoms: _252  and  _253
REMARK  101  A    between atoms: _252  and  _255
REMARK  102  A    between atoms: _255  and  _256
REMARK  103  A    between atoms: _256  and  _257
REMARK  104  A    between atoms: _260  and  _262
REMARK  105  A    between atoms: _262  and  _263
REMARK  106  A    between atoms: _262  and  _265
REMARK  107  A    between atoms: _265  and  _266
REMARK  108  A    between atoms: _269  and  _271
REMARK  109  A    between atoms: _271  and  _272
REMARK  110  A    between atoms: _271  and  _274
REMARK  111  A    between atoms: _274  and  _275
REMARK  112  A    between atoms: _278  and  _280
REMARK  113  A    between atoms: _280  and  _281
REMARK  114  A    between atoms: _280  and  _283
REMARK  115  A    between atoms: _283  and  _284
REMARK  116  A    between atoms: _289  and  _290
REMARK  117  A    between atoms: _292  and  _294
REMARK  118  A    between atoms: _294  and  _295
REMARK  119  A    between atoms: _294  and  _297
REMARK  120  A    between atoms: _297  and  _298
REMARK  121  A    between atoms: _301  and  _303
REMARK  122  A    between atoms: _303  and  _304
REMARK  123  A    between atoms: _303  and  _306
REMARK  124  A    between atoms: _306  and  _307
REMARK  125  A    between atoms: _307  and  _308
REMARK  126  A    between atoms: _310  and  _312
REMARK  127  A    between atoms: _312  and  _313
REMARK  128  A    between atoms: _312  and  _315
REMARK  129  A    between atoms: _315  and  _316
REMARK  130  A    between atoms: _319  and  _321
REMARK  131  A    between atoms: _321  and  _322
REMARK  132  A    between atoms: _325  and  _327
REMARK  133  A    between atoms: _327  and  _328
REMARK  134  A    between atoms: _327  and  _330
REMARK  135  A    between atoms: _330  and  _331
REMARK  136  A    between atoms: _333  and  _335
REMARK  137  A    between atoms: _335  and  _336
REMARK  138  A    between atoms: _335  and  _338
REMARK  139  A    between atoms: _338  and  _339
REMARK  140  A    between atoms: _342  and  _344
REMARK  141  A    between atoms: _344  and  _345
REMARK  142  A    between atoms: _344  and  _347
REMARK  143  A    between atoms: _347  and  _348
REMARK  144  A    between atoms: _348  and  _349
REMARK  145  A    between atoms: _351  and  _353
REMARK  146  A    between atoms: _353  and  _354
REMARK  147  A    between atoms: _356  and  _358
REMARK  148  A    between atoms: _358  and  _359
REMARK  149  A    between atoms: _358  and  _361
REMARK  150  A    between atoms: _364  and  _366
REMARK  151  A    between atoms: _366  and  _367
REMARK  152  A    between atoms: _366  and  _369
REMARK  153  A    between atoms: _369  and  _370
REMARK  154  A    between atoms: _373  and  _375
REMARK  155  A    between atoms: _375  and  _376
REMARK  156  A    between atoms: _375  and  _378
REMARK  157  A    between atoms: _378  and  _379
REMARK  158  A    between atoms: _382  and  _384
REMARK  159  A    between atoms: _384  and  _385
REMARK  160  A    between atoms: _384  and  _387
REMARK  161  A    between atoms: _387  and  _388
REMARK  162  A    between atoms: _390  and  _392
REMARK  163  A    between atoms: _392  and  _393
REMARK  164  A    between atoms: _392  and  _395
REMARK  165  A    between atoms: _395  and  _396
REMARK  166  A    between atoms: _396  and  _397
REMARK  167  A    between atoms: _400  and  _402
REMARK  168  A    between atoms: _402  and  _403
REMARK  169  A    between atoms: _405  and  _407
REMARK  170  A    between atoms: _407  and  _408
REMARK  171  A    between atoms: _407  and  _410
REMARK  172  A    between atoms: _410  and  _411
REMARK  173  A    between atoms: _417  and  _419
REMARK  174  A    between atoms: _419  and  _420
REMARK  175  A    between atoms: _419  and  _422
REMARK  176  A    between atoms: _422  and  _423
REMARK  177  A    between atoms: _423  and  _424
REMARK  178  A    between atoms: _426  and  _428
REMARK  179  A    between atoms: _428  and  _429
REMARK  180  A    between atoms: _428  and  _431
REMARK  181  A    between atoms: _431  and  _432
REMARK  182  A    between atoms: _435  and  _437
REMARK  183  A    between atoms: _437  and  _438
REMARK  184  A    between atoms: _437  and  _440
REMARK  185  A    between atoms: _440  and  _441
REMARK  186  A    between atoms: _447  and  _449
REMARK  187  A    between atoms: _449  and  _450
REMARK  188  A    between atoms: _449  and  _452
REMARK  189  A    between atoms: _452  and  _453
REMARK  190  A    between atoms: _456  and  _458
REMARK  191  A    between atoms: _458  and  _459
REMARK  192  A    between atoms: _458  and  _461
REMARK  193  A    between atoms: _461  and  _462
REMARK  194  A    between atoms: _465  and  _467
REMARK  195  A    between atoms: _467  and  _468
REMARK  196  A    between atoms: _467  and  _470
REMARK  197  A    between atoms: _470  and  _471
REMARK  198  A    between atoms: _477  and  _479
REMARK  199  A    between atoms: _479  and  _480
REMARK  200  A    between atoms: _479  and  _482
REMARK  201  A    between atoms: _482  and  _483
REMARK  202  A    between atoms: _483  and  _484
REMARK  203  A    between atoms: _486  and  _488
REMARK  204  A    between atoms: _488  and  _489
REMARK  205  A    between atoms: _488  and  _491
REMARK  206  A    between atoms: _491  and  _492
REMARK  207  A    between atoms: _492  and  _493
REMARK  208  A    between atoms: _493  and  _494
REMARK  209  A    between atoms: _494  and  _495
REMARK  210  A    between atoms: _499  and  _501
REMARK  211  A    between atoms: _501  and  _502
REMARK  212  A    between atoms: _501  and  _504
REMARK  213  A    between atoms: _504  and  _505
REMARK  214  A    between atoms: _511  and  _513
REMARK  215  A    between atoms: _513  and  _514
REMARK  216  A    between atoms: _513  and  _516
REMARK  217  A    between atoms: _516  and  _517
REMARK  218  A    between atoms: _520  and  _522
REMARK  219  A    between atoms: _522  and  _523
REMARK  220  A    between atoms: _522  and  _525
REMARK  221  A    between atoms: _528  and  _530
REMARK  222  A    between atoms: _530  and  _531
REMARK  223  A    between atoms: _530  and  _533
REMARK  224  A    between atoms: _533  and  _534
REMARK  225  A    between atoms: _539  and  _541
REMARK  226  A    between atoms: _541  and  _542
REMARK  227  A    between atoms: _541  and  _544
REMARK  228  A    between atoms: _547  and  _549
REMARK  229  A    between atoms: _549  and  _550
REMARK  230  A    between atoms: _549  and  _552
REMARK  231  A    between atoms: _552  and  _553
REMARK  232  A    between atoms: _556  and  _558
REMARK  233  A    between atoms: _558  and  _559
REMARK  234  A    between atoms: _558  and  _561
REMARK  235  A    between atoms: _561  and  _562
REMARK  236  A    between atoms: _565  and  _567
REMARK  237  A    between atoms: _567  and  _568
REMARK  238  A    between atoms: _567  and  _570
REMARK  239  A    between atoms: _570  and  _571
REMARK  240  A    between atoms: _571  and  _572
REMARK  241  A    between atoms: _574  and  _576
REMARK  242  A    between atoms: _576  and  _577
REMARK  243  A    between atoms: _576  and  _579
REMARK  244  A    between atoms: _579  and  _580
REMARK  245  A    between atoms: _582  and  _584
REMARK  246  A    between atoms: _584  and  _585
REMARK  247  A    between atoms: _584  and  _587
REMARK  248  A    between atoms: _587  and  _588
REMARK  249  A    between atoms: _591  and  _593
REMARK  250  A    between atoms: _593  and  _594
REMARK  251  A    between atoms: _593  and  _596
REMARK  252  A    between atoms: _596  and  _597
REMARK  253  A    between atoms: _602  and  _604
REMARK  254  A    between atoms: _604  and  _605
REMARK  255  A    between atoms: _604  and  _607
REMARK  256  A    between atoms: _607  and  _608
REMARK  257  A    between atoms: _611  and  _613
REMARK  258  A    between atoms: _613  and  _614
REMARK  259  A    between atoms: _613  and  _616
REMARK  260  A    between atoms: _616  and  _617
REMARK  261  A    between atoms: _620  and  _622
REMARK  262  A    between atoms: _622  and  _623
REMARK  263  A    between atoms: _622  and  _625
REMARK  264  A    between atoms: _625  and  _626
REMARK  265  A    between atoms: _626  and  _627
REMARK  266  A    between atoms: _632  and  _634
REMARK  267  A    between atoms: _634  and  _635
REMARK  268  A    between atoms: _634  and  _637
REMARK  269  A    between atoms: _637  and  _638
REMARK  270  A    between atoms: _641  and  _643
REMARK  271  A    between atoms: _643  and  _644
REMARK  272  A    between atoms: _643  and  _646
REMARK  273  A    between atoms: _646  and  _647
REMARK  274  A    between atoms: _652  and  _653
REMARK                            x       y       z     vdW  Elec       q    Type
REMARK                         _______ _______ _______ _____ _____    ______ ____
ROOT
ATOM      1  O   HOH     1      24.850  19.695  27.092  0.00  0.00    +0.000 OA
ENDROOT
TORSDOF 0
REMARK  Name = ../refined-set-2016/2i4j/2i4j_pocket.pdb
REMARK  274 active torsions:
REMARK  status: ('A' for Active; 'I' for Inactive)
REMARK    1  A    between atoms: _1  and  _3
REMARK    2  A    between atoms: _3  and  _4
REMARK    3  A    between atoms: _3  and  _6
REMARK    4  A    between atoms: _6  and  _7
REMARK    5  A    between atoms: _12  and  _13
REMARK    6  A    between atoms: _15  and  _17
REMARK    7  A    between atoms: _17  and  _18
REMARK    8  A    between atoms: _17  and  _20
REMARK    9  A    between atoms: _20  and  _21
REMARK   10  A    between atoms: _23  and  _25
REMARK   11  A    between atoms: _25  and  _26
REMARK   12  A    between atoms: _25  and  _28
REMARK   13  A    between atoms: _28  and  _29
REMARK   14  A    between atoms: _36  and  _37
REMARK   15  A    between atoms: _42  and  _44
REMARK   16  A    between atoms: _44  and  _45
REMARK   17  A    between atoms: _44  and  _47
REMARK   18  A    between atoms: _47  and  _48
REMARK   19  A    between atoms: _51  and  _53
REMARK   20  A    between atoms: _53  and  _54
REMARK   21  A    between atoms: _53  and  _56
REMARK   22  A    between atoms: _56  and  _57
REMARK   23  A    between atoms: _60  and  _62
REMARK   24  A    between atoms: _62  and  _63
REMARK   25  A    between atoms: _62  and  _65
REMARK   26  A    between atoms: _65  and  _66
REMARK   27  A    between atoms: _72  and  _74
REMARK   28  A    between atoms: _74  and  _75
REMARK   29  A    between atoms: _74  and  _77
REMARK   30  A    between atoms: _77  and  _78
REMARK   31  A    between atoms: _78  and  _79
REMARK   32  A    between atoms: _84  and  _86
REMARK   33  A    between atoms: _86  and  _87
REMARK   34  A    between atoms: _89  and  _91
REMARK   35  A    between atoms: _91  and  _92
REMARK   36  A    between atoms: _91  and  _94
REMARK   37  A    between atoms: _96  and  _98
REMARK   38  A    between atoms: _98  and  _99
REMARK   39  A    between atoms: _98  and  _101
REMARK   40  A    between atoms: _101  and  _102
REMARK   41  A    between atoms: _102  and  _103
REMARK   42  A    between atoms: _108  and  _110
REMARK   43  A    between atoms: _110  and  _111
REMARK   44  A    between atoms: _110  and  _113
REMARK   45  A    between atoms: _113  and  _114
REMARK   46  A    between atoms: _120  and  _122
REMARK   47  A    between atoms: _122  and  _123
REMARK   48  A    between atoms: _122  and  _125
REMARK   49  A    between atoms: _125  and  _126
REMARK   50  A    between atoms: _126  and  _127
REMARK   51  A    between atoms: _127  and  _128
REMARK   52  A    between atoms: _137  and  _139
REMARK   53  A    between atoms: _139  and  _140
REMARK   54  A    between atoms: _139  and  _142
REMARK   55  A    between atoms: _142  and  _143
REMARK   56  A    between atoms: _145  and  _147
REMARK   57  A    between atoms: _147  and  _148
REMARK   58  A    between atoms: _147  and  _150
REMARK   59  A    between atoms: _153  and  _155
REMARK   60  A    between atoms: _155  and  _156
REMARK   61  A    between atoms: _155  and  _158
REMARK   62  A    between atoms: _158  and  _159
REMARK   63  A    between atoms: _159  and  _160
REMARK   64  A    between atoms: _163  and  _165
REMARK   65  A    between atoms: _165  and  _166
REMARK   66  A    between atoms: _169  and  _171
REMARK   67  A    between atoms: _171  and  _172
REMARK   68  A    between atoms: _171  and  _174
REMARK   69  A    between atoms: _177  and  _179
REMARK   70  A    between atoms: _179  and  _180
REMARK   71  A    between atoms: _179  and  _182
REMARK   72  A    between atoms: _182  and  _183
REMARK   73  A    between atoms: _183  and  _184
REMARK   74  A    between atoms: _189  and  _191
REMARK   75  A    between atoms: _191  and  _192
REMARK   76  A    between atoms: _191  and  _194
REMARK   77  A    between atoms: _194  and  _195
REMARK   78  A    between atoms: _195  and  _196
REMARK   79  A    between atoms: _199  and  _201
REMARK   80  A    between atoms: _201  and  _202
REMARK   81  A    between atoms: _201  and  _204
REMARK   82  A    between atoms: _204  and  _205
REMARK   83  A    between atoms: _208  and  _210
REMARK   84  A    between atoms: _210  and  _211
REMARK   85  A    between atoms: _210  and  _213
REMARK   86  A    between atoms: _213  and  _214
REMARK   87  A    between atoms: _217  and  _219
REMARK   88  A    between atoms: _219  and  _220
REMARK   89  A    between atoms: _219  and  _222
REMARK   90  A    between atoms: _222  and  _223
REMARK   91  A    between atoms: _228  and  _229
REMARK   92  A    between atoms: _231  and  _233
REMARK   93  A    between atoms: _233  and  _234
REMARK   94  A    between atoms: _233  and  _236
REMARK   95  A    between atoms: _239  and  _241
REMARK   96  A    between atoms: _241  and  _242
REMARK   97  A    between atoms: _241  and  _244
REMARK   98  A    between atoms: _244  and  _245
REMARK   99  A    between atoms: _250  and  _252
REMARK  100  A    between atoms: _252  and  _253
REMARK  101  A    between atoms: _252  and  _255
REMARK  102  A    between atoms: _255  and  _256
REMARK  103  A    between atoms: _256  and  _257
REMARK  104  A    between atoms: _260  and  _262
REMARK  105  A    between atoms: _262  and  _263
REMARK  106  A    between atoms: _262  and  _265
REMARK  107  A    between atoms: _265  and  _266
REMARK  108  A    between atoms: _269  and  _271
REMARK  109  A    between atoms: _271  and  _272
REMARK  110  A    between atoms: _271  and  _274
REMARK  111  A    between atoms: _274  and  _275
REMARK  112  A    between atoms: _278  and  _280
REMARK  113  A    between atoms: _280  and  _281
REMARK  114  A    between atoms: _280  and  _283
REMARK  115  A    between atoms: _283  and  _284
REMARK  116  A    between atoms: _289  and  _290
REMARK  117  A    between atoms: _292  and  _294
REMARK  118  A    between atoms: _294  and  _295
REMARK  119  A    between atoms: _294  and  _297
REMARK  120  A    between atoms: _297  and  _298
REMARK  121  A    between atoms: _301  and  _303
REMARK  122  A    between atoms: _303  and  _304
REMARK  123  A    between atoms: _303  and  _306
REMARK  124  A    between atoms: _306  and  _307
REMARK  125  A    between atoms: _307  and  _308
REMARK  126  A    between atoms: _310  and  _312
REMARK  127  A    between atoms: _312  and  _313
REMARK  128  A    between atoms: _312  and  _315
REMARK  129  A    between atoms: _315  and  _316
REMARK  130  A    between atoms: _319  and  _321
REMARK  131  A    between atoms: _321  and  _322
REMARK  132  A    between atoms: _325  and  _327
REMARK  133  A    between atoms: _327  and  _328
REMARK  134  A    between atoms: _327  and  _330
REMARK  135  A    between atoms: _330  and  _331
REMARK  136  A    between atoms: _333  and  _335
REMARK  137  A    between atoms: _335  and  _336
REMARK  138  A    between atoms: _335  and  _338
REMARK  139  A    between atoms: _338  and  _339
REMARK  140  A    between atoms: _342  and  _344
REMARK  141  A    between atoms: _344  and  _345
REMARK  142  A    between atoms: _344  and  _347
REMARK  143  A    between atoms: _347  and  _348
REMARK  144  A    between atoms: _348  and  _349
REMARK  145  A    between atoms: _351  and  _353
REMARK  146  A    between atoms: _353  and  _354
REMARK  147  A    between atoms: _356  and  _358
REMARK  148  A    between atoms: _358  and  _359
REMARK  149  A    between atoms: _358  and  _361
REMARK  150  A    between atoms: _364  and  _366
REMARK  151  A    between atoms: _366  and  _367
REMARK  152  A    between atoms: _366  and  _369
REMARK  153  A    between atoms: _369  and  _370
REMARK  154  A    between atoms: _373  and  _375
REMARK  155  A    between atoms: _375  and  _376
REMARK  156  A    between atoms: _375  and  _378
REMARK  157  A    between atoms: _378  and  _379
REMARK  158  A    between atoms: _382  and  _384
REMARK  159  A    between atoms: _384  and  _385
REMARK  160  A    between atoms: _384  and  _387
REMARK  161  A    between atoms: _387  and  _388
REMARK  162  A    between atoms: _390  and  _392
REMARK  163  A    between atoms: _392  and  _393
REMARK  164  A    between atoms: _392  and  _395
REMARK  165  A    between atoms: _395  and  _396
REMARK  166  A    between atoms: _396  and  _397
REMARK  167  A    between atoms: _400  and  _402
REMARK  168  A    between atoms: _402  and  _403
REMARK  169  A    between atoms: _405  and  _407
REMARK  170  A    between atoms: _407  and  _408
REMARK  171  A    between atoms: _407  and  _410
REMARK  172  A    between atoms: _410  and  _411
REMARK  173  A    between atoms: _417  and  _419
REMARK  174  A    between atoms: _419  and  _420
REMARK  175  A    between atoms: _419  and  _422
REMARK  176  A    between atoms: _422  and  _423
REMARK  177  A    between atoms: _423  and  _424
REMARK  178  A    between atoms: _426  and  _428
REMARK  179  A    between atoms: _428  and  _429
REMARK  180  A    between atoms: _428  and  _431
REMARK  181  A    between atoms: _431  and  _432
REMARK  182  A    between atoms: _435  and  _437
REMARK  183  A    between atoms: _437  and  _438
REMARK  184  A    between atoms: _437  and  _440
REMARK  185  A    between atoms: _440  and  _441
REMARK  186  A    between atoms: _447  and  _449
REMARK  187  A    between atoms: _449  and  _450
REMARK  188  A    between atoms: _449  and  _452
REMARK  189  A    between atoms: _452  and  _453
REMARK  190  A    between atoms: _456  and  _458
REMARK  191  A    between atoms: _458  and  _459
REMARK  192  A    between atoms: _458  and  _461
REMARK  193  A    between atoms: _461  and  _462
REMARK  194  A    between atoms: _465  and  _467
REMARK  195  A    between atoms: _467  and  _468
REMARK  196  A    between atoms: _467  and  _470
REMARK  197  A    between atoms: _470  and  _471
REMARK  198  A    between atoms: _477  and  _479
REMARK  199  A    between atoms: _479  and  _480
REMARK  200  A    between atoms: _479  and  _482
REMARK  201  A    between atoms: _482  and  _483
REMARK  202  A    between atoms: _483  and  _484
REMARK  203  A    between atoms: _486  and  _488
REMARK  204  A    between atoms: _488  and  _489
REMARK  205  A    between atoms: _488  and  _491
REMARK  206  A    between atoms: _491  and  _492
REMARK  207  A    between atoms: _492  and  _493
REMARK  208  A    between atoms: _493  and  _494
REMARK  209  A    between atoms: _494  and  _495
REMARK  210  A    between atoms: _499  and  _501
REMARK  211  A    between atoms: _501  and  _502
REMARK  212  A    between atoms: _501  and  _504
REMARK  213  A    between atoms: _504  and  _505
REMARK  214  A    between atoms: _511  and  _513
REMARK  215  A    between atoms: _513  and  _514
REMARK  216  A    between atoms: _513  and  _516
REMARK  217  A    between atoms: _516  and  _517
REMARK  218  A    between atoms: _520  and  _522
REMARK  219  A    between atoms: _522  and  _523
REMARK  220  A    between atoms: _522  and  _525
REMARK  221  A    between atoms: _528  and  _530
REMARK  222  A    between atoms: _530  and  _531
REMARK  223  A    between atoms: _530  and  _533
REMARK  224  A    between atoms: _533  and  _534
REMARK  225  A    between atoms: _539  and  _541
REMARK  226  A    between atoms: _541  and  _542
REMARK  227  A    between atoms: _541  and  _544
REMARK  228  A    between atoms: _547  and  _549
REMARK  229  A    between atoms: _549  and  _550
REMARK  230  A    between atoms: _549  and  _552
REMARK  231  A    between atoms: _552  and  _553
REMARK  232  A    between atoms: _556  and  _558
REMARK  233  A    between atoms: _558  and  _559
REMARK  234  A    between atoms: _558  and  _561
REMARK  235  A    between atoms: _561  and  _562
REMARK  236  A    between atoms: _565  and  _567
REMARK  237  A    between atoms: _567  and  _568
REMARK  238  A    between atoms: _567  and  _570
REMARK  239  A    between atoms: _570  and  _571
REMARK  240  A    between atoms: _571  and  _572
REMARK  241  A    between atoms: _574  and  _576
REMARK  242  A    between atoms: _576  and  _577
REMARK  243  A    between atoms: _576  and  _579
REMARK  244  A    between atoms: _579  and  _580
REMARK  245  A    between atoms: _582  and  _584
REMARK  246  A    between atoms: _584  and  _585
REMARK  247  A    between atoms: _584  and  _587
REMARK  248  A    between atoms: _587  and  _588
REMARK  249  A    between atoms: _591  and  _593
REMARK  250  A    between atoms: _593  and  _594
REMARK  251  A    between atoms: _593  and  _596
REMARK  252  A    between atoms: _596  and  _597
REMARK  253  A    between atoms: _602  and  _604
REMARK  254  A    between atoms: _604  and  _605
REMARK  255  A    between atoms: _604  and  _607
REMARK  256  A    between atoms: _607  and  _608
REMARK  257  A    between atoms: _611  and  _613
REMARK  258  A    between atoms: _613  and  _614
REMARK  259  A    between atoms: _613  and  _616
REMARK  260  A    between atoms: _616  and  _617
REMARK  261  A    between atoms: _620  and  _622
REMARK  262  A    between atoms: _622  and  _623
REMARK  263  A    between atoms: _622  and  _625
REMARK  264  A    between atoms: _625  and  _626
REMARK  265  A    between atoms: _626  and  _627
REMARK  266  A    between atoms: _632  and  _634
REMARK  267  A    between atoms: _634  and  _635
REMARK  268  A    between atoms: _634  and  _637
REMARK  269  A    between atoms: _637  and  _638
REMARK  270  A    between atoms: _641  and  _643
REMARK  271  A    between atoms: _643  and  _644
REMARK  272  A    between atoms: _643  and  _646
REMARK  273  A    between atoms: _646  and  _647
REMARK  274  A    between atoms: _652  and  _653
REMARK                            x       y       z     vdW  Elec       q    Type
REMARK                         _______ _______ _______ _____ _____    ______ ____
ROOT
ATOM      1  O   HOH     1       7.884   7.811  12.549  0.00  0.00    +0.000 OA
ENDROOT
TORSDOF 0
REMARK  Name = ../refined-set-2016/2i4j/2i4j_pocket.pdb
REMARK  274 active torsions:
REMARK  status: ('A' for Active; 'I' for Inactive)
REMARK    1  A    between atoms: _1  and  _3
REMARK    2  A    between atoms: _3  and  _4
REMARK    3  A    between atoms: _3  and  _6
REMARK    4  A    between atoms: _6  and  _7
REMARK    5  A    between atoms: _12  and  _13
REMARK    6  A    between atoms: _15  and  _17
REMARK    7  A    between atoms: _17  and  _18
REMARK    8  A    between atoms: _17  and  _20
REMARK    9  A    between atoms: _20  and  _21
REMARK   10  A    between atoms: _23  and  _25
REMARK   11  A    between atoms: _25  and  _26
REMARK   12  A    between atoms: _25  and  _28
REMARK   13  A    between atoms: _28  and  _29
REMARK   14  A    between atoms: _36  and  _37
REMARK   15  A    between atoms: _42  and  _44
REMARK   16  A    between atoms: _44  and  _45
REMARK   17  A    between atoms: _44  and  _47
REMARK   18  A    between atoms: _47  and  _48
REMARK   19  A    between atoms: _51  and  _53
REMARK   20  A    between atoms: _53  and  _54
REMARK   21  A    between atoms: _53  and  _56
REMARK   22  A    between atoms: _56  and  _57
REMARK   23  A    between atoms: _60  and  _62
REMARK   24  A    between atoms: _62  and  _63
REMARK   25  A    between atoms: _62  and  _65
REMARK   26  A    between atoms: _65  and  _66
REMARK   27  A    between atoms: _72  and  _74
REMARK   28  A    between atoms: _74  and  _75
REMARK   29  A    between atoms: _74  and  _77
REMARK   30  A    between atoms: _77  and  _78
REMARK   31  A    between atoms: _78  and  _79
REMARK   32  A    between atoms: _84  and  _86
REMARK   33  A    between atoms: _86  and  _87
REMARK   34  A    between atoms: _89  and  _91
REMARK   35  A    between atoms: _91  and  _92
REMARK   36  A    between atoms: _91  and  _94
REMARK   37  A    between atoms: _96  and  _98
REMARK   38  A    between atoms: _98  and  _99
REMARK   39  A    between atoms: _98  and  _101
REMARK   40  A    between atoms: _101  and  _102
REMARK   41  A    between atoms: _102  and  _103
REMARK   42  A    between atoms: _108  and  _110
REMARK   43  A    between atoms: _110  and  _111
REMARK   44  A    between atoms: _110  and  _113
REMARK   45  A    between atoms: _113  and  _114
REMARK   46  A    between atoms: _120  and  _122
REMARK   47  A    between atoms: _122  and  _123
REMARK   48  A    between atoms: _122  and  _125
REMARK   49  A    between atoms: _125  and  _126
REMARK   50  A    between atoms: _126  and  _127
REMARK   51  A    between atoms: _127  and  _128
REMARK   52  A    between atoms: _137  and  _139
REMARK   53  A    between atoms: _139  and  _140
REMARK   54  A    between atoms: _139  and  _142
REMARK   55  A    between atoms: _142  and  _143
REMARK   56  A    between atoms: _145  and  _147
REMARK   57  A    between atoms: _147  and  _148
REMARK   58  A    between atoms: _147  and  _150
REMARK   59  A    between atoms: _153  and  _155
REMARK   60  A    between atoms: _155  and  _156
REMARK   61  A    between atoms: _155  and  _158
REMARK   62  A    between atoms: _158  and  _159
REMARK   63  A    between atoms: _159  and  _160
REMARK   64  A    between atoms: _163  and  _165
REMARK   65  A    between atoms: _165  and  _166
REMARK   66  A    between atoms: _169  and  _171
REMARK   67  A    between atoms: _171  and  _172
REMARK   68  A    between atoms: _171  and  _174
REMARK   69  A    between atoms: _177  and  _179
REMARK   70  A    between atoms: _179  and  _180
REMARK   71  A    between atoms: _179  and  _182
REMARK   72  A    between atoms: _182  and  _183
REMARK   73  A    between atoms: _183  and  _184
REMARK   74  A    between atoms: _189  and  _191
REMARK   75  A    between atoms: _191  and  _192
REMARK   76  A    between atoms: _191  and  _194
REMARK   77  A    between atoms: _194  and  _195
REMARK   78  A    between atoms: _195  and  _196
REMARK   79  A    between atoms: _199  and  _201
REMARK   80  A    between atoms: _201  and  _202
REMARK   81  A    between atoms: _201  and  _204
REMARK   82  A    between atoms: _204  and  _205
REMARK   83  A    between atoms: _208  and  _210
REMARK   84  A    between atoms: _210  and  _211
REMARK   85  A    between atoms: _210  and  _213
REMARK   86  A    between atoms: _213  and  _214
REMARK   87  A    between atoms: _217  and  _219
REMARK   88  A    between atoms: _219  and  _220
REMARK   89  A    between atoms: _219  and  _222
REMARK   90  A    between atoms: _222  and  _223
REMARK   91  A    between atoms: _228  and  _229
REMARK   92  A    between atoms: _231  and  _233
REMARK   93  A    between atoms: _233  and  _234
REMARK   94  A    between atoms: _233  and  _236
REMARK   95  A    between atoms: _239  and  _241
REMARK   96  A    between atoms: _241  and  _242
REMARK   97  A    between atoms: _241  and  _244
REMARK   98  A    between atoms: _244  and  _245
REMARK   99  A    between atoms: _250  and  _252
REMARK  100  A    between atoms: _252  and  _253
REMARK  101  A    between atoms: _252  and  _255
REMARK  102  A    between atoms: _255  and  _256
REMARK  103  A    between atoms: _256  and  _257
REMARK  104  A    between atoms: _260  and  _262
REMARK  105  A    between atoms: _262  and  _263
REMARK  106  A    between atoms: _262  and  _265
REMARK  107  A    between atoms: _265  and  _266
REMARK  108  A    between atoms: _269  and  _271
REMARK  109  A    between atoms: _271  and  _272
REMARK  110  A    between atoms: _271  and  _274
REMARK  111  A    between atoms: _274  and  _275
REMARK  112  A    between atoms: _278  and  _280
REMARK  113  A    between atoms: _280  and  _281
REMARK  114  A    between atoms: _280  and  _283
REMARK  115  A    between atoms: _283  and  _284
REMARK  116  A    between atoms: _289  and  _290
REMARK  117  A    between atoms: _292  and  _294
REMARK  118  A    between atoms: _294  and  _295
REMARK  119  A    between atoms: _294  and  _297
REMARK  120  A    between atoms: _297  and  _298
REMARK  121  A    between atoms: _301  and  _303
REMARK  122  A    between atoms: _303  and  _304
REMARK  123  A    between atoms: _303  and  _306
REMARK  124  A    between atoms: _306  and  _307
REMARK  125  A    between atoms: _307  and  _308
REMARK  126  A    between atoms: _310  and  _312
REMARK  127  A    between atoms: _312  and  _313
REMARK  128  A    between atoms: _312  and  _315
REMARK  129  A    between atoms: _315  and  _316
REMARK  130  A    between atoms: _319  and  _321
REMARK  131  A    between atoms: _321  and  _322
REMARK  132  A    between atoms: _325  and  _327
REMARK  133  A    between atoms: _327  and  _328
REMARK  134  A    between atoms: _327  and  _330
REMARK  135  A    between atoms: _330  and  _331
REMARK  136  A    between atoms: _333  and  _335
REMARK  137  A    between atoms: _335  and  _336
REMARK  138  A    between atoms: _335  and  _338
REMARK  139  A    between atoms: _338  and  _339
REMARK  140  A    between atoms: _342  and  _344
REMARK  141  A    between atoms: _344  and  _345
REMARK  142  A    between atoms: _344  and  _347
REMARK  143  A    between atoms: _347  and  _348
REMARK  144  A    between atoms: _348  and  _349
REMARK  145  A    between atoms: _351  and  _353
REMARK  146  A    between atoms: _353  and  _354
REMARK  147  A    between atoms: _356  and  _358
REMARK  148  A    between atoms: _358  and  _359
REMARK  149  A    between atoms: _358  and  _361
REMARK  150  A    between atoms: _364  and  _366
REMARK  151  A    between atoms: _366  and  _367
REMARK  152  A    between atoms: _366  and  _369
REMARK  153  A    between atoms: _369  and  _370
REMARK  154  A    between atoms: _373  and  _375
REMARK  155  A    between atoms: _375  and  _376
REMARK  156  A    between atoms: _375  and  _378
REMARK  157  A    between atoms: _378  and  _379
REMARK  158  A    between atoms: _382  and  _384
REMARK  159  A    between atoms: _384  and  _385
REMARK  160  A    between atoms: _384  and  _387
REMARK  161  A    between atoms: _387  and  _388
REMARK  162  A    between atoms: _390  and  _392
REMARK  163  A    between atoms: _392  and  _393
REMARK  164  A    between atoms: _392  and  _395
REMARK  165  A    between atoms: _395  and  _396
REMARK  166  A    between atoms: _396  and  _397
REMARK  167  A    between atoms: _400  and  _402
REMARK  168  A    between atoms: _402  and  _403
REMARK  169  A    between atoms: _405  and  _407
REMARK  170  A    between atoms: _407  and  _408
REMARK  171  A    between atoms: _407  and  _410
REMARK  172  A    between atoms: _410  and  _411
REMARK  173  A    between atoms: _417  and  _419
REMARK  174  A    between atoms: _419  and  _420
REMARK  175  A    between atoms: _419  and  _422
REMARK  176  A    between atoms: _422  and  _423
REMARK  177  A    between atoms: _423  and  _424
REMARK  178  A    between atoms: _426  and  _428
REMARK  179  A    between atoms: _428  and  _429
REMARK  180  A    between atoms: _428  and  _431
REMARK  181  A    between atoms: _431  and  _432
REMARK  182  A    between atoms: _435  and  _437
REMARK  183  A    between atoms: _437  and  _438
REMARK  184  A    between atoms: _437  and  _440
REMARK  185  A    between atoms: _440  and  _441
REMARK  186  A    between atoms: _447  and  _449
REMARK  187  A    between atoms: _449  and  _450
REMARK  188  A    between atoms: _449  and  _452
REMARK  189  A    between atoms: _452  and  _453
REMARK  190  A    between atoms: _456  and  _458
REMARK  191  A    between atoms: _458  and  _459
REMARK  192  A    between atoms: _458  and  _461
REMARK  193  A    between atoms: _461  and  _462
REMARK  194  A    between atoms: _465  and  _467
REMARK  195  A    between atoms: _467  and  _468
REMARK  196  A    between atoms: _467  and  _470
REMARK  197  A    between atoms: _470  and  _471
REMARK  198  A    between atoms: _477  and  _479
REMARK  199  A    between atoms: _479  and  _480
REMARK  200  A    between atoms: _479  and  _482
REMARK  201  A    between atoms: _482  and  _483
REMARK  202  A    between atoms: _483  and  _484
REMARK  203  A    between atoms: _486  and  _488
REMARK  204  A    between atoms: _488  and  _489
REMARK  205  A    between atoms: _488  and  _491
REMARK  206  A    between atoms: _491  and  _492
REMARK  207  A    between atoms: _492  and  _493
REMARK  208  A    between atoms: _493  and  _494
REMARK  209  A    between atoms: _494  and  _495
REMARK  210  A    between atoms: _499  and  _501
REMARK  211  A    between atoms: _501  and  _502
REMARK  212  A    between atoms: _501  and  _504
REMARK  213  A    between atoms: _504  and  _505
REMARK  214  A    between atoms: _511  and  _513
REMARK  215  A    between atoms: _513  and  _514
REMARK  216  A    between atoms: _513  and  _516
REMARK  217  A    between atoms: _516  and  _517
REMARK  218  A    between atoms: _520  and  _522
REMARK  219  A    between atoms: _522  and  _523
REMARK  220  A    between atoms: _522  and  _525
REMARK  221  A    between atoms: _528  and  _530
REMARK  222  A    between atoms: _530  and  _531
REMARK  223  A    between atoms: _530  and  _533
REMARK  224  A    between atoms: _533  and  _534
REMARK  225  A    between atoms: _539  and  _541
REMARK  226  A    between atoms: _541  and  _542
REMARK  227  A    between atoms: _541  and  _544
REMARK  228  A    between atoms: _547  and  _549
REMARK  229  A    between atoms: _549  and  _550
REMARK  230  A    between atoms: _549  and  _552
REMARK  231  A    between atoms: _552  and  _553
REMARK  232  A    between atoms: _556  and  _558
REMARK  233  A    between atoms: _558  and  _559
REMARK  234  A    between atoms: _558  and  _561
REMARK  235  A    between atoms: _561  and  _562
REMARK  236  A    between atoms: _565  and  _567
REMARK  237  A    between atoms: _567  and  _568
REMARK  238  A    between atoms: _567  and  _570
REMARK  239  A    between atoms: _570  and  _571
REMARK  240  A    between atoms: _571  and  _572
REMARK  241  A    between atoms: _574  and  _576
REMARK  242  A    between atoms: _576  and  _577
REMARK  243  A    between atoms: _576  and  _579
REMARK  244  A    between atoms: _579  and  _580
REMARK  245  A    between atoms: _582  and  _584
REMARK  246  A    between atoms: _584  and  _585
REMARK  247  A    between atoms: _584  and  _587
REMARK  248  A    between atoms: _587  and  _588
REMARK  249  A    between atoms: _591  and  _593
REMARK  250  A    between atoms: _593  and  _594
REMARK  251  A    between atoms: _593  and  _596
REMARK  252  A    between atoms: _596  and  _597
REMARK  253  A    between atoms: _602  and  _604
REMARK  254  A    between atoms: _604  and  _605
REMARK  255  A    between atoms: _604  and  _607
REMARK  256  A    between atoms: _607  and  _608
REMARK  257  A    between atoms: _611  and  _613
REMARK  258  A    between atoms: _613  and  _614
REMARK  259  A    between atoms: _613  and  _616
REMARK  260  A    between atoms: _616  and  _617
REMARK  261  A    between atoms: _620  and  _622
REMARK  262  A    between atoms: _622  and  _623
REMARK  263  A    between atoms: _622  and  _625
REMARK  264  A    between atoms: _625  and  _626
REMARK  265  A    between atoms: _626  and  _627
REMARK  266  A    between atoms: _632  and  _634
REMARK  267  A    between atoms: _634  and  _635
REMARK  268  A    between atoms: _634  and  _637
REMARK  269  A    between atoms: _637  and  _638
REMARK  270  A    between atoms: _641  and  _643
REMARK  271  A    between atoms: _643  and  _644
REMARK  272  A    between atoms: _643  and  _646
REMARK  273  A    between atoms: _646  and  _647
REMARK  274  A    between atoms: _652  and  _653
REMARK                            x       y       z     vdW  Elec       q    Type
REMARK                         _______ _______ _______ _____ _____    ______ ____
ROOT
ATOM      1  O   HOH     1       8.002  10.237  11.715  0.00  0.00    +0.000 OA
ENDROOT
TORSDOF 0
REMARK  Name = ../refined-set-2016/2i4j/2i4j_pocket.pdb
REMARK  274 active torsions:
REMARK  status: ('A' for Active; 'I' for Inactive)
REMARK    1  A    between atoms: _1  and  _3
REMARK    2  A    between atoms: _3  and  _4
REMARK    3  A    between atoms: _3  and  _6
REMARK    4  A    between atoms: _6  and  _7
REMARK    5  A    between atoms: _12  and  _13
REMARK    6  A    between atoms: _15  and  _17
REMARK    7  A    between atoms: _17  and  _18
REMARK    8  A    between atoms: _17  and  _20
REMARK    9  A    between atoms: _20  and  _21
REMARK   10  A    between atoms: _23  and  _25
REMARK   11  A    between atoms: _25  and  _26
REMARK   12  A    between atoms: _25  and  _28
REMARK   13  A    between atoms: _28  and  _29
REMARK   14  A    between atoms: _36  and  _37
REMARK   15  A    between atoms: _42  and  _44
REMARK   16  A    between atoms: _44  and  _45
REMARK   17  A    between atoms: _44  and  _47
REMARK   18  A    between atoms: _47  and  _48
REMARK   19  A    between atoms: _51  and  _53
REMARK   20  A    between atoms: _53  and  _54
REMARK   21  A    between atoms: _53  and  _56
REMARK   22  A    between atoms: _56  and  _57
REMARK   23  A    between atoms: _60  and  _62
REMARK   24  A    between atoms: _62  and  _63
REMARK   25  A    between atoms: _62  and  _65
REMARK   26  A    between atoms: _65  and  _66
REMARK   27  A    between atoms: _72  and  _74
REMARK   28  A    between atoms: _74  and  _75
REMARK   29  A    between atoms: _74  and  _77
REMARK   30  A    between atoms: _77  and  _78
REMARK   31  A    between atoms: _78  and  _79
REMARK   32  A    between atoms: _84  and  _86
REMARK   33  A    between atoms: _86  and  _87
REMARK   34  A    between atoms: _89  and  _91
REMARK   35  A    between atoms: _91  and  _92
REMARK   36  A    between atoms: _91  and  _94
REMARK   37  A    between atoms: _96  and  _98
REMARK   38  A    between atoms: _98  and  _99
REMARK   39  A    between atoms: _98  and  _101
REMARK   40  A    between atoms: _101  and  _102
REMARK   41  A    between atoms: _102  and  _103
REMARK   42  A    between atoms: _108  and  _110
REMARK   43  A    between atoms: _110  and  _111
REMARK   44  A    between atoms: _110  and  _113
REMARK   45  A    between atoms: _113  and  _114
REMARK   46  A    between atoms: _120  and  _122
REMARK   47  A    between atoms: _122  and  _123
REMARK   48  A    between atoms: _122  and  _125
REMARK   49  A    between atoms: _125  and  _126
REMARK   50  A    between atoms: _126  and  _127
REMARK   51  A    between atoms: _127  and  _128
REMARK   52  A    between atoms: _137  and  _139
REMARK   53  A    between atoms: _139  and  _140
REMARK   54  A    between atoms: _139  and  _142
REMARK   55  A    between atoms: _142  and  _143
REMARK   56  A    between atoms: _145  and  _147
REMARK   57  A    between atoms: _147  and  _148
REMARK   58  A    between atoms: _147  and  _150
REMARK   59  A    between atoms: _153  and  _155
REMARK   60  A    between atoms: _155  and  _156
REMARK   61  A    between atoms: _155  and  _158
REMARK   62  A    between atoms: _158  and  _159
REMARK   63  A    between atoms: _159  and  _160
REMARK   64  A    between atoms: _163  and  _165
REMARK   65  A    between atoms: _165  and  _166
REMARK   66  A    between atoms: _169  and  _171
REMARK   67  A    between atoms: _171  and  _172
REMARK   68  A    between atoms: _171  and  _174
REMARK   69  A    between atoms: _177  and  _179
REMARK   70  A    between atoms: _179  and  _180
REMARK   71  A    between atoms: _179  and  _182
REMARK   72  A    between atoms: _182  and  _183
REMARK   73  A    between atoms: _183  and  _184
REMARK   74  A    between atoms: _189  and  _191
REMARK   75  A    between atoms: _191  and  _192
REMARK   76  A    between atoms: _191  and  _194
REMARK   77  A    between atoms: _194  and  _195
REMARK   78  A    between atoms: _195  and  _196
REMARK   79  A    between atoms: _199  and  _201
REMARK   80  A    between atoms: _201  and  _202
REMARK   81  A    between atoms: _201  and  _204
REMARK   82  A    between atoms: _204  and  _205
REMARK   83  A    between atoms: _208  and  _210
REMARK   84  A    between atoms: _210  and  _211
REMARK   85  A    between atoms: _210  and  _213
REMARK   86  A    between atoms: _213  and  _214
REMARK   87  A    between atoms: _217  and  _219
REMARK   88  A    between atoms: _219  and  _220
REMARK   89  A    between atoms: _219  and  _222
REMARK   90  A    between atoms: _222  and  _223
REMARK   91  A    between atoms: _228  and  _229
REMARK   92  A    between atoms: _231  and  _233
REMARK   93  A    between atoms: _233  and  _234
REMARK   94  A    between atoms: _233  and  _236
REMARK   95  A    between atoms: _239  and  _241
REMARK   96  A    between atoms: _241  and  _242
REMARK   97  A    between atoms: _241  and  _244
REMARK   98  A    between atoms: _244  and  _245
REMARK   99  A    between atoms: _250  and  _252
REMARK  100  A    between atoms: _252  and  _253
REMARK  101  A    between atoms: _252  and  _255
REMARK  102  A    between atoms: _255  and  _256
REMARK  103  A    between atoms: _256  and  _257
REMARK  104  A    between atoms: _260  and  _262
REMARK  105  A    between atoms: _262  and  _263
REMARK  106  A    between atoms: _262  and  _265
REMARK  107  A    between atoms: _265  and  _266
REMARK  108  A    between atoms: _269  and  _271
REMARK  109  A    between atoms: _271  and  _272
REMARK  110  A    between atoms: _271  and  _274
REMARK  111  A    between atoms: _274  and  _275
REMARK  112  A    between atoms: _278  and  _280
REMARK  113  A    between atoms: _280  and  _281
REMARK  114  A    between atoms: _280  and  _283
REMARK  115  A    between atoms: _283  and  _284
REMARK  116  A    between atoms: _289  and  _290
REMARK  117  A    between atoms: _292  and  _294
REMARK  118  A    between atoms: _294  and  _295
REMARK  119  A    between atoms: _294  and  _297
REMARK  120  A    between atoms: _297  and  _298
REMARK  121  A    between atoms: _301  and  _303
REMARK  122  A    between atoms: _303  and  _304
REMARK  123  A    between atoms: _303  and  _306
REMARK  124  A    between atoms: _306  and  _307
REMARK  125  A    between atoms: _307  and  _308
REMARK  126  A    between atoms: _310  and  _312
REMARK  127  A    between atoms: _312  and  _313
REMARK  128  A    between atoms: _312  and  _315
REMARK  129  A    between atoms: _315  and  _316
REMARK  130  A    between atoms: _319  and  _321
REMARK  131  A    between atoms: _321  and  _322
REMARK  132  A    between atoms: _325  and  _327
REMARK  133  A    between atoms: _327  and  _328
REMARK  134  A    between atoms: _327  and  _330
REMARK  135  A    between atoms: _330  and  _331
REMARK  136  A    between atoms: _333  and  _335
REMARK  137  A    between atoms: _335  and  _336
REMARK  138  A    between atoms: _335  and  _338
REMARK  139  A    between atoms: _338  and  _339
REMARK  140  A    between atoms: _342  and  _344
REMARK  141  A    between atoms: _344  and  _345
REMARK  142  A    between atoms: _344  and  _347
REMARK  143  A    between atoms: _347  and  _348
REMARK  144  A    between atoms: _348  and  _349
REMARK  145  A    between atoms: _351  and  _353
REMARK  146  A    between atoms: _353  and  _354
REMARK  147  A    between atoms: _356  and  _358
REMARK  148  A    between atoms: _358  and  _359
REMARK  149  A    between atoms: _358  and  _361
REMARK  150  A    between atoms: _364  and  _366
REMARK  151  A    between atoms: _366  and  _367
REMARK  152  A    between atoms: _366  and  _369
REMARK  153  A    between atoms: _369  and  _370
REMARK  154  A    between atoms: _373  and  _375
REMARK  155  A    between atoms: _375  and  _376
REMARK  156  A    between atoms: _375  and  _378
REMARK  157  A    between atoms: _378  and  _379
REMARK  158  A    between atoms: _382  and  _384
REMARK  159  A    between atoms: _384  and  _385
REMARK  160  A    between atoms: _384  and  _387
REMARK  161  A    between atoms: _387  and  _388
REMARK  162  A    between atoms: _390  and  _392
REMARK  163  A    between atoms: _392  and  _393
REMARK  164  A    between atoms: _392  and  _395
REMARK  165  A    between atoms: _395  and  _396
REMARK  166  A    between atoms: _396  and  _397
REMARK  167  A    between atoms: _400  and  _402
REMARK  168  A    between atoms: _402  and  _403
REMARK  169  A    between atoms: _405  and  _407
REMARK  170  A    between atoms: _407  and  _408
REMARK  171  A    between atoms: _407  and  _410
REMARK  172  A    between atoms: _410  and  _411
REMARK  173  A    between atoms: _417  and  _419
REMARK  174  A    between atoms: _419  and  _420
REMARK  175  A    between atoms: _419  and  _422
REMARK  176  A    between atoms: _422  and  _423
REMARK  177  A    between atoms: _423  and  _424
REMARK  178  A    between atoms: _426  and  _428
REMARK  179  A    between atoms: _428  and  _429
REMARK  180  A    between atoms: _428  and  _431
REMARK  181  A    between atoms: _431  and  _432
REMARK  182  A    between atoms: _435  and  _437
REMARK  183  A    between atoms: _437  and  _438
REMARK  184  A    between atoms: _437  and  _440
REMARK  185  A    between atoms: _440  and  _441
REMARK  186  A    between atoms: _447  and  _449
REMARK  187  A    between atoms: _449  and  _450
REMARK  188  A    between atoms: _449  and  _452
REMARK  189  A    between atoms: _452  and  _453
REMARK  190  A    between atoms: _456  and  _458
REMARK  191  A    between atoms: _458  and  _459
REMARK  192  A    between atoms: _458  and  _461
REMARK  193  A    between atoms: _461  and  _462
REMARK  194  A    between atoms: _465  and  _467
REMARK  195  A    between atoms: _467  and  _468
REMARK  196  A    between atoms: _467  and  _470
REMARK  197  A    between atoms: _470  and  _471
REMARK  198  A    between atoms: _477  and  _479
REMARK  199  A    between atoms: _479  and  _480
REMARK  200  A    between atoms: _479  and  _482
REMARK  201  A    between atoms: _482  and  _483
REMARK  202  A    between atoms: _483  and  _484
REMARK  203  A    between atoms: _486  and  _488
REMARK  204  A    between atoms: _488  and  _489
REMARK  205  A    between atoms: _488  and  _491
REMARK  206  A    between atoms: _491  and  _492
REMARK  207  A    between atoms: _492  and  _493
REMARK  208  A    between atoms: _493  and  _494
REMARK  209  A    between atoms: _494  and  _495
REMARK  210  A    between atoms: _499  and  _501
REMARK  211  A    between atoms: _501  and  _502
REMARK  212  A    between atoms: _501  and  _504
REMARK  213  A    between atoms: _504  and  _505
REMARK  214  A    between atoms: _511  and  _513
REMARK  215  A    between atoms: _513  and  _514
REMARK  216  A    between atoms: _513  and  _516
REMARK  217  A    between atoms: _516  and  _517
REMARK  218  A    between atoms: _520  and  _522
REMARK  219  A    between atoms: _522  and  _523
REMARK  220  A    between atoms: _522  and  _525
REMARK  221  A    between atoms: _528  and  _530
REMARK  222  A    between atoms: _530  and  _531
REMARK  223  A    between atoms: _530  and  _533
REMARK  224  A    between atoms: _533  and  _534
REMARK  225  A    between atoms: _539  and  _541
REMARK  226  A    between atoms: _541  and  _542
REMARK  227  A    between atoms: _541  and  _544
REMARK  228  A    between atoms: _547  and  _549
REMARK  229  A    between atoms: _549  and  _550
REMARK  230  A    between atoms: _549  and  _552
REMARK  231  A    between atoms: _552  and  _553
REMARK  232  A    between atoms: _556  and  _558
REMARK  233  A    between atoms: _558  and  _559
REMARK  234  A    between atoms: _558  and  _561
REMARK  235  A    between atoms: _561  and  _562
REMARK  236  A    between atoms: _565  and  _567
REMARK  237  A    between atoms: _567  and  _568
REMARK  238  A    between atoms: _567  and  _570
REMARK  239  A    between atoms: _570  and  _571
REMARK  240  A    between atoms: _571  and  _572
REMARK  241  A    between atoms: _574  and  _576
REMARK  242  A    between atoms: _576  and  _577
REMARK  243  A    between atoms: _576  and  _579
REMARK  244  A    between atoms: _579  and  _580
REMARK  245  A    between atoms: _582  and  _584
REMARK  246  A    between atoms: _584  and  _585
REMARK  247  A    between atoms: _584  and  _587
REMARK  248  A    between atoms: _587  and  _588
REMARK  249  A    between atoms: _591  and  _593
REMARK  250  A    between atoms: _593  and  _594
REMARK  251  A    between atoms: _593  and  _596
REMARK  252  A    between atoms: _596  and  _597
REMARK  253  A    between atoms: _602  and  _604
REMARK  254  A    between atoms: _604  and  _605
REMARK  255  A    between atoms: _604  and  _607
REMARK  256  A    between atoms: _607  and  _608
REMARK  257  A    between atoms: _611  and  _613
REMARK  258  A    between atoms: _613  and  _614
REMARK  259  A    between atoms: _613  and  _616
REMARK  260  A    between atoms: _616  and  _617
REMARK  261  A    between atoms: _620  and  _622
REMARK  262  A    between atoms: _622  and  _623
REMARK  263  A    between atoms: _622  and  _625
REMARK  264  A    between atoms: _625  and  _626
REMARK  265  A    between atoms: _626  and  _627
REMARK  266  A    between atoms: _632  and  _634
REMARK  267  A    between atoms: _634  and  _635
REMARK  268  A    between atoms: _634  and  _637
REMARK  269  A    between atoms: _637  and  _638
REMARK  270  A    between atoms: _641  and  _643
REMARK  271  A    between atoms: _643  and  _644
REMARK  272  A    between atoms: _643  and  _646
REMARK  273  A    between atoms: _646  and  _647
REMARK  274  A    between atoms: _652  and  _653
REMARK                            x       y       z     vdW  Elec       q    Type
REMARK                         _______ _______ _______ _____ _____    ______ ____
ROOT
ATOM      1  O   HOH     1       9.255  12.742  12.667  0.00  0.00    +0.000 OA
ENDROOT
TORSDOF 0
REMARK  Name = ../refined-set-2016/2i4j/2i4j_pocket.pdb
REMARK  274 active torsions:
REMARK  status: ('A' for Active; 'I' for Inactive)
REMARK    1  A    between atoms: _1  and  _3
REMARK    2  A    between atoms: _3  and  _4
REMARK    3  A    between atoms: _3  and  _6
REMARK    4  A    between atoms: _6  and  _7
REMARK    5  A    between atoms: _12  and  _13
REMARK    6  A    between atoms: _15  and  _17
REMARK    7  A    between atoms: _17  and  _18
REMARK    8  A    between atoms: _17  and  _20
REMARK    9  A    between atoms: _20  and  _21
REMARK   10  A    between atoms: _23  and  _25
REMARK   11  A    between atoms: _25  and  _26
REMARK   12  A    between atoms: _25  and  _28
REMARK   13  A    between atoms: _28  and  _29
REMARK   14  A    between atoms: _36  and  _37
REMARK   15  A    between atoms: _42  and  _44
REMARK   16  A    between atoms: _44  and  _45
REMARK   17  A    between atoms: _44  and  _47
REMARK   18  A    between atoms: _47  and  _48
REMARK   19  A    between atoms: _51  and  _53
REMARK   20  A    between atoms: _53  and  _54
REMARK   21  A    between atoms: _53  and  _56
REMARK   22  A    between atoms: _56  and  _57
REMARK   23  A    between atoms: _60  and  _62
REMARK   24  A    between atoms: _62  and  _63
REMARK   25  A    between atoms: _62  and  _65
REMARK   26  A    between atoms: _65  and  _66
REMARK   27  A    between atoms: _72  and  _74
REMARK   28  A    between atoms: _74  and  _75
REMARK   29  A    between atoms: _74  and  _77
REMARK   30  A    between atoms: _77  and  _78
REMARK   31  A    between atoms: _78  and  _79
REMARK   32  A    between atoms: _84  and  _86
REMARK   33  A    between atoms: _86  and  _87
REMARK   34  A    between atoms: _89  and  _91
REMARK   35  A    between atoms: _91  and  _92
REMARK   36  A    between atoms: _91  and  _94
REMARK   37  A    between atoms: _96  and  _98
REMARK   38  A    between atoms: _98  and  _99
REMARK   39  A    between atoms: _98  and  _101
REMARK   40  A    between atoms: _101  and  _102
REMARK   41  A    between atoms: _102  and  _103
REMARK   42  A    between atoms: _108  and  _110
REMARK   43  A    between atoms: _110  and  _111
REMARK   44  A    between atoms: _110  and  _113
REMARK   45  A    between atoms: _113  and  _114
REMARK   46  A    between atoms: _120  and  _122
REMARK   47  A    between atoms: _122  and  _123
REMARK   48  A    between atoms: _122  and  _125
REMARK   49  A    between atoms: _125  and  _126
REMARK   50  A    between atoms: _126  and  _127
REMARK   51  A    between atoms: _127  and  _128
REMARK   52  A    between atoms: _137  and  _139
REMARK   53  A    between atoms: _139  and  _140
REMARK   54  A    between atoms: _139  and  _142
REMARK   55  A    between atoms: _142  and  _143
REMARK   56  A    between atoms: _145  and  _147
REMARK   57  A    between atoms: _147  and  _148
REMARK   58  A    between atoms: _147  and  _150
REMARK   59  A    between atoms: _153  and  _155
REMARK   60  A    between atoms: _155  and  _156
REMARK   61  A    between atoms: _155  and  _158
REMARK   62  A    between atoms: _158  and  _159
REMARK   63  A    between atoms: _159  and  _160
REMARK   64  A    between atoms: _163  and  _165
REMARK   65  A    between atoms: _165  and  _166
REMARK   66  A    between atoms: _169  and  _171
REMARK   67  A    between atoms: _171  and  _172
REMARK   68  A    between atoms: _171  and  _174
REMARK   69  A    between atoms: _177  and  _179
REMARK   70  A    between atoms: _179  and  _180
REMARK   71  A    between atoms: _179  and  _182
REMARK   72  A    between atoms: _182  and  _183
REMARK   73  A    between atoms: _183  and  _184
REMARK   74  A    between atoms: _189  and  _191
REMARK   75  A    between atoms: _191  and  _192
REMARK   76  A    between atoms: _191  and  _194
REMARK   77  A    between atoms: _194  and  _195
REMARK   78  A    between atoms: _195  and  _196
REMARK   79  A    between atoms: _199  and  _201
REMARK   80  A    between atoms: _201  and  _202
REMARK   81  A    between atoms: _201  and  _204
REMARK   82  A    between atoms: _204  and  _205
REMARK   83  A    between atoms: _208  and  _210
REMARK   84  A    between atoms: _210  and  _211
REMARK   85  A    between atoms: _210  and  _213
REMARK   86  A    between atoms: _213  and  _214
REMARK   87  A    between atoms: _217  and  _219
REMARK   88  A    between atoms: _219  and  _220
REMARK   89  A    between atoms: _219  and  _222
REMARK   90  A    between atoms: _222  and  _223
REMARK   91  A    between atoms: _228  and  _229
REMARK   92  A    between atoms: _231  and  _233
REMARK   93  A    between atoms: _233  and  _234
REMARK   94  A    between atoms: _233  and  _236
REMARK   95  A    between atoms: _239  and  _241
REMARK   96  A    between atoms: _241  and  _242
REMARK   97  A    between atoms: _241  and  _244
REMARK   98  A    between atoms: _244  and  _245
REMARK   99  A    between atoms: _250  and  _252
REMARK  100  A    between atoms: _252  and  _253
REMARK  101  A    between atoms: _252  and  _255
REMARK  102  A    between atoms: _255  and  _256
REMARK  103  A    between atoms: _256  and  _257
REMARK  104  A    between atoms: _260  and  _262
REMARK  105  A    between atoms: _262  and  _263
REMARK  106  A    between atoms: _262  and  _265
REMARK  107  A    between atoms: _265  and  _266
REMARK  108  A    between atoms: _269  and  _271
REMARK  109  A    between atoms: _271  and  _272
REMARK  110  A    between atoms: _271  and  _274
REMARK  111  A    between atoms: _274  and  _275
REMARK  112  A    between atoms: _278  and  _280
REMARK  113  A    between atoms: _280  and  _281
REMARK  114  A    between atoms: _280  and  _283
REMARK  115  A    between atoms: _283  and  _284
REMARK  116  A    between atoms: _289  and  _290
REMARK  117  A    between atoms: _292  and  _294
REMARK  118  A    between atoms: _294  and  _295
REMARK  119  A    between atoms: _294  and  _297
REMARK  120  A    between atoms: _297  and  _298
REMARK  121  A    between atoms: _301  and  _303
REMARK  122  A    between atoms: _303  and  _304
REMARK  123  A    between atoms: _303  and  _306
REMARK  124  A    between atoms: _306  and  _307
REMARK  125  A    between atoms: _307  and  _308
REMARK  126  A    between atoms: _310  and  _312
REMARK  127  A    between atoms: _312  and  _313
REMARK  128  A    between atoms: _312  and  _315
REMARK  129  A    between atoms: _315  and  _316
REMARK  130  A    between atoms: _319  and  _321
REMARK  131  A    between atoms: _321  and  _322
REMARK  132  A    between atoms: _325  and  _327
REMARK  133  A    between atoms: _327  and  _328
REMARK  134  A    between atoms: _327  and  _330
REMARK  135  A    between atoms: _330  and  _331
REMARK  136  A    between atoms: _333  and  _335
REMARK  137  A    between atoms: _335  and  _336
REMARK  138  A    between atoms: _335  and  _338
REMARK  139  A    between atoms: _338  and  _339
REMARK  140  A    between atoms: _342  and  _344
REMARK  141  A    between atoms: _344  and  _345
REMARK  142  A    between atoms: _344  and  _347
REMARK  143  A    between atoms: _347  and  _348
REMARK  144  A    between atoms: _348  and  _349
REMARK  145  A    between atoms: _351  and  _353
REMARK  146  A    between atoms: _353  and  _354
REMARK  147  A    between atoms: _356  and  _358
REMARK  148  A    between atoms: _358  and  _359
REMARK  149  A    between atoms: _358  and  _361
REMARK  150  A    between atoms: _364  and  _366
REMARK  151  A    between atoms: _366  and  _367
REMARK  152  A    between atoms: _366  and  _369
REMARK  153  A    between atoms: _369  and  _370
REMARK  154  A    between atoms: _373  and  _375
REMARK  155  A    between atoms: _375  and  _376
REMARK  156  A    between atoms: _375  and  _378
REMARK  157  A    between atoms: _378  and  _379
REMARK  158  A    between atoms: _382  and  _384
REMARK  159  A    between atoms: _384  and  _385
REMARK  160  A    between atoms: _384  and  _387
REMARK  161  A    between atoms: _387  and  _388
REMARK  162  A    between atoms: _390  and  _392
REMARK  163  A    between atoms: _392  and  _393
REMARK  164  A    between atoms: _392  and  _395
REMARK  165  A    between atoms: _395  and  _396
REMARK  166  A    between atoms: _396  and  _397
REMARK  167  A    between atoms: _400  and  _402
REMARK  168  A    between atoms: _402  and  _403
REMARK  169  A    between atoms: _405  and  _407
REMARK  170  A    between atoms: _407  and  _408
REMARK  171  A    between atoms: _407  and  _410
REMARK  172  A    between atoms: _410  and  _411
REMARK  173  A    between atoms: _417  and  _419
REMARK  174  A    between atoms: _419  and  _420
REMARK  175  A    between atoms: _419  and  _422
REMARK  176  A    between atoms: _422  and  _423
REMARK  177  A    between atoms: _423  and  _424
REMARK  178  A    between atoms: _426  and  _428
REMARK  179  A    between atoms: _428  and  _429
REMARK  180  A    between atoms: _428  and  _431
REMARK  181  A    between atoms: _431  and  _432
REMARK  182  A    between atoms: _435  and  _437
REMARK  183  A    between atoms: _437  and  _438
REMARK  184  A    between atoms: _437  and  _440
REMARK  185  A    between atoms: _440  and  _441
REMARK  186  A    between atoms: _447  and  _449
REMARK  187  A    between atoms: _449  and  _450
REMARK  188  A    between atoms: _449  and  _452
REMARK  189  A    between atoms: _452  and  _453
REMARK  190  A    between atoms: _456  and  _458
REMARK  191  A    between atoms: _458  and  _459
REMARK  192  A    between atoms: _458  and  _461
REMARK  193  A    between atoms: _461  and  _462
REMARK  194  A    between atoms: _465  and  _467
REMARK  195  A    between atoms: _467  and  _468
REMARK  196  A    between atoms: _467  and  _470
REMARK  197  A    between atoms: _470  and  _471
REMARK  198  A    between atoms: _477  and  _479
REMARK  199  A    between atoms: _479  and  _480
REMARK  200  A    between atoms: _479  and  _482
REMARK  201  A    between atoms: _482  and  _483
REMARK  202  A    between atoms: _483  and  _484
REMARK  203  A    between atoms: _486  and  _488
REMARK  204  A    between atoms: _488  and  _489
REMARK  205  A    between atoms: _488  and  _491
REMARK  206  A    between atoms: _491  and  _492
REMARK  207  A    between atoms: _492  and  _493
REMARK  208  A    between atoms: _493  and  _494
REMARK  209  A    between atoms: _494  and  _495
REMARK  210  A    between atoms: _499  and  _501
REMARK  211  A    between atoms: _501  and  _502
REMARK  212  A    between atoms: _501  and  _504
REMARK  213  A    between atoms: _504  and  _505
REMARK  214  A    between atoms: _511  and  _513
REMARK  215  A    between atoms: _513  and  _514
REMARK  216  A    between atoms: _513  and  _516
REMARK  217  A    between atoms: _516  and  _517
REMARK  218  A    between atoms: _520  and  _522
REMARK  219  A    between atoms: _522  and  _523
REMARK  220  A    between atoms: _522  and  _525
REMARK  221  A    between atoms: _528  and  _530
REMARK  222  A    between atoms: _530  and  _531
REMARK  223  A    between atoms: _530  and  _533
REMARK  224  A    between atoms: _533  and  _534
REMARK  225  A    between atoms: _539  and  _541
REMARK  226  A    between atoms: _541  and  _542
REMARK  227  A    between atoms: _541  and  _544
REMARK  228  A    between atoms: _547  and  _549
REMARK  229  A    between atoms: _549  and  _550
REMARK  230  A    between atoms: _549  and  _552
REMARK  231  A    between atoms: _552  and  _553
REMARK  232  A    between atoms: _556  and  _558
REMARK  233  A    between atoms: _558  and  _559
REMARK  234  A    between atoms: _558  and  _561
REMARK  235  A    between atoms: _561  and  _562
REMARK  236  A    between atoms: _565  and  _567
REMARK  237  A    between atoms: _567  and  _568
REMARK  238  A    between atoms: _567  and  _570
REMARK  239  A    between atoms: _570  and  _571
REMARK  240  A    between atoms: _571  and  _572
REMARK  241  A    between atoms: _574  and  _576
REMARK  242  A    between atoms: _576  and  _577
REMARK  243  A    between atoms: _576  and  _579
REMARK  244  A    between atoms: _579  and  _580
REMARK  245  A    between atoms: _582  and  _584
REMARK  246  A    between atoms: _584  and  _585
REMARK  247  A    between atoms: _584  and  _587
REMARK  248  A    between atoms: _587  and  _588
REMARK  249  A    between atoms: _591  and  _593
REMARK  250  A    between atoms: _593  and  _594
REMARK  251  A    between atoms: _593  and  _596
REMARK  252  A    between atoms: _596  and  _597
REMARK  253  A    between atoms: _602  and  _604
REMARK  254  A    between atoms: _604  and  _605
REMARK  255  A    between atoms: _604  and  _607
REMARK  256  A    between atoms: _607  and  _608
REMARK  257  A    between atoms: _611  and  _613
REMARK  258  A    between atoms: _613  and  _614
REMARK  259  A    between atoms: _613  and  _616
REMARK  260  A    between atoms: _616  and  _617
REMARK  261  A    between atoms: _620  and  _622
REMARK  262  A    between atoms: _622  and  _623
REMARK  263  A    between atoms: _622  and  _625
REMARK  264  A    between atoms: _625  and  _626
REMARK  265  A    between atoms: _626  and  _627
REMARK  266  A    between atoms: _632  and  _634
REMARK  267  A    between atoms: _634  and  _635
REMARK  268  A    between atoms: _634  and  _637
REMARK  269  A    between atoms: _637  and  _638
REMARK  270  A    between atoms: _641  and  _643
REMARK  271  A    between atoms: _643  and  _644
REMARK  272  A    between atoms: _643  and  _646
REMARK  273  A    between atoms: _646  and  _647
REMARK  274  A    between atoms: _652  and  _653
REMARK                            x       y       z     vdW  Elec       q    Type
REMARK                         _______ _______ _______ _____ _____    ______ ____
ROOT
ATOM      1  O   HOH     1      13.344  17.184   9.666  0.00  0.00    +0.000 OA
ENDROOT
TORSDOF 0
REMARK  Name = ../refined-set-2016/2i4j/2i4j_pocket.pdb
REMARK  274 active torsions:
REMARK  status: ('A' for Active; 'I' for Inactive)
REMARK    1  A    between atoms: _1  and  _3
REMARK    2  A    between atoms: _3  and  _4
REMARK    3  A    between atoms: _3  and  _6
REMARK    4  A    between atoms: _6  and  _7
REMARK    5  A    between atoms: _12  and  _13
REMARK    6  A    between atoms: _15  and  _17
REMARK    7  A    between atoms: _17  and  _18
REMARK    8  A    between atoms: _17  and  _20
REMARK    9  A    between atoms: _20  and  _21
REMARK   10  A    between atoms: _23  and  _25
REMARK   11  A    between atoms: _25  and  _26
REMARK   12  A    between atoms: _25  and  _28
REMARK   13  A    between atoms: _28  and  _29
REMARK   14  A    between atoms: _36  and  _37
REMARK   15  A    between atoms: _42  and  _44
REMARK   16  A    between atoms: _44  and  _45
REMARK   17  A    between atoms: _44  and  _47
REMARK   18  A    between atoms: _47  and  _48
REMARK   19  A    between atoms: _51  and  _53
REMARK   20  A    between atoms: _53  and  _54
REMARK   21  A    between atoms: _53  and  _56
REMARK   22  A    between atoms: _56  and  _57
REMARK   23  A    between atoms: _60  and  _62
REMARK   24  A    between atoms: _62  and  _63
REMARK   25  A    between atoms: _62  and  _65
REMARK   26  A    between atoms: _65  and  _66
REMARK   27  A    between atoms: _72  and  _74
REMARK   28  A    between atoms: _74  and  _75
REMARK   29  A    between atoms: _74  and  _77
REMARK   30  A    between atoms: _77  and  _78
REMARK   31  A    between atoms: _78  and  _79
REMARK   32  A    between atoms: _84  and  _86
REMARK   33  A    between atoms: _86  and  _87
REMARK   34  A    between atoms: _89  and  _91
REMARK   35  A    between atoms: _91  and  _92
REMARK   36  A    between atoms: _91  and  _94
REMARK   37  A    between atoms: _96  and  _98
REMARK   38  A    between atoms: _98  and  _99
REMARK   39  A    between atoms: _98  and  _101
REMARK   40  A    between atoms: _101  and  _102
REMARK   41  A    between atoms: _102  and  _103
REMARK   42  A    between atoms: _108  and  _110
REMARK   43  A    between atoms: _110  and  _111
REMARK   44  A    between atoms: _110  and  _113
REMARK   45  A    between atoms: _113  and  _114
REMARK   46  A    between atoms: _120  and  _122
REMARK   47  A    between atoms: _122  and  _123
REMARK   48  A    between atoms: _122  and  _125
REMARK   49  A    between atoms: _125  and  _126
REMARK   50  A    between atoms: _126  and  _127
REMARK   51  A    between atoms: _127  and  _128
REMARK   52  A    between atoms: _137  and  _139
REMARK   53  A    between atoms: _139  and  _140
REMARK   54  A    between atoms: _139  and  _142
REMARK   55  A    between atoms: _142  and  _143
REMARK   56  A    between atoms: _145  and  _147
REMARK   57  A    between atoms: _147  and  _148
REMARK   58  A    between atoms: _147  and  _150
REMARK   59  A    between atoms: _153  and  _155
REMARK   60  A    between atoms: _155  and  _156
REMARK   61  A    between atoms: _155  and  _158
REMARK   62  A    between atoms: _158  and  _159
REMARK   63  A    between atoms: _159  and  _160
REMARK   64  A    between atoms: _163  and  _165
REMARK   65  A    between atoms: _165  and  _166
REMARK   66  A    between atoms: _169  and  _171
REMARK   67  A    between atoms: _171  and  _172
REMARK   68  A    between atoms: _171  and  _174
REMARK   69  A    between atoms: _177  and  _179
REMARK   70  A    between atoms: _179  and  _180
REMARK   71  A    between atoms: _179  and  _182
REMARK   72  A    between atoms: _182  and  _183
REMARK   73  A    between atoms: _183  and  _184
REMARK   74  A    between atoms: _189  and  _191
REMARK   75  A    between atoms: _191  and  _192
REMARK   76  A    between atoms: _191  and  _194
REMARK   77  A    between atoms: _194  and  _195
REMARK   78  A    between atoms: _195  and  _196
REMARK   79  A    between atoms: _199  and  _201
REMARK   80  A    between atoms: _201  and  _202
REMARK   81  A    between atoms: _201  and  _204
REMARK   82  A    between atoms: _204  and  _205
REMARK   83  A    between atoms: _208  and  _210
REMARK   84  A    between atoms: _210  and  _211
REMARK   85  A    between atoms: _210  and  _213
REMARK   86  A    between atoms: _213  and  _214
REMARK   87  A    between atoms: _217  and  _219
REMARK   88  A    between atoms: _219  and  _220
REMARK   89  A    between atoms: _219  and  _222
REMARK   90  A    between atoms: _222  and  _223
REMARK   91  A    between atoms: _228  and  _229
REMARK   92  A    between atoms: _231  and  _233
REMARK   93  A    between atoms: _233  and  _234
REMARK   94  A    between atoms: _233  and  _236
REMARK   95  A    between atoms: _239  and  _241
REMARK   96  A    between atoms: _241  and  _242
REMARK   97  A    between atoms: _241  and  _244
REMARK   98  A    between atoms: _244  and  _245
REMARK   99  A    between atoms: _250  and  _252
REMARK  100  A    between atoms: _252  and  _253
REMARK  101  A    between atoms: _252  and  _255
REMARK  102  A    between atoms: _255  and  _256
REMARK  103  A    between atoms: _256  and  _257
REMARK  104  A    between atoms: _260  and  _262
REMARK  105  A    between atoms: _262  and  _263
REMARK  106  A    between atoms: _262  and  _265
REMARK  107  A    between atoms: _265  and  _266
REMARK  108  A    between atoms: _269  and  _271
REMARK  109  A    between atoms: _271  and  _272
REMARK  110  A    between atoms: _271  and  _274
REMARK  111  A    between atoms: _274  and  _275
REMARK  112  A    between atoms: _278  and  _280
REMARK  113  A    between atoms: _280  and  _281
REMARK  114  A    between atoms: _280  and  _283
REMARK  115  A    between atoms: _283  and  _284
REMARK  116  A    between atoms: _289  and  _290
REMARK  117  A    between atoms: _292  and  _294
REMARK  118  A    between atoms: _294  and  _295
REMARK  119  A    between atoms: _294  and  _297
REMARK  120  A    between atoms: _297  and  _298
REMARK  121  A    between atoms: _301  and  _303
REMARK  122  A    between atoms: _303  and  _304
REMARK  123  A    between atoms: _303  and  _306
REMARK  124  A    between atoms: _306  and  _307
REMARK  125  A    between atoms: _307  and  _308
REMARK  126  A    between atoms: _310  and  _312
REMARK  127  A    between atoms: _312  and  _313
REMARK  128  A    between atoms: _312  and  _315
REMARK  129  A    between atoms: _315  and  _316
REMARK  130  A    between atoms: _319  and  _321
REMARK  131  A    between atoms: _321  and  _322
REMARK  132  A    between atoms: _325  and  _327
REMARK  133  A    between atoms: _327  and  _328
REMARK  134  A    between atoms: _327  and  _330
REMARK  135  A    between atoms: _330  and  _331
REMARK  136  A    between atoms: _333  and  _335
REMARK  137  A    between atoms: _335  and  _336
REMARK  138  A    between atoms: _335  and  _338
REMARK  139  A    between atoms: _338  and  _339
REMARK  140  A    between atoms: _342  and  _344
REMARK  141  A    between atoms: _344  and  _345
REMARK  142  A    between atoms: _344  and  _347
REMARK  143  A    between atoms: _347  and  _348
REMARK  144  A    between atoms: _348  and  _349
REMARK  145  A    between atoms: _351  and  _353
REMARK  146  A    between atoms: _353  and  _354
REMARK  147  A    between atoms: _356  and  _358
REMARK  148  A    between atoms: _358  and  _359
REMARK  149  A    between atoms: _358  and  _361
REMARK  150  A    between atoms: _364  and  _366
REMARK  151  A    between atoms: _366  and  _367
REMARK  152  A    between atoms: _366  and  _369
REMARK  153  A    between atoms: _369  and  _370
REMARK  154  A    between atoms: _373  and  _375
REMARK  155  A    between atoms: _375  and  _376
REMARK  156  A    between atoms: _375  and  _378
REMARK  157  A    between atoms: _378  and  _379
REMARK  158  A    between atoms: _382  and  _384
REMARK  159  A    between atoms: _384  and  _385
REMARK  160  A    between atoms: _384  and  _387
REMARK  161  A    between atoms: _387  and  _388
REMARK  162  A    between atoms: _390  and  _392
REMARK  163  A    between atoms: _392  and  _393
REMARK  164  A    between atoms: _392  and  _395
REMARK  165  A    between atoms: _395  and  _396
REMARK  166  A    between atoms: _396  and  _397
REMARK  167  A    between atoms: _400  and  _402
REMARK  168  A    between atoms: _402  and  _403
REMARK  169  A    between atoms: _405  and  _407
REMARK  170  A    between atoms: _407  and  _408
REMARK  171  A    between atoms: _407  and  _410
REMARK  172  A    between atoms: _410  and  _411
REMARK  173  A    between atoms: _417  and  _419
REMARK  174  A    between atoms: _419  and  _420
REMARK  175  A    between atoms: _419  and  _422
REMARK  176  A    between atoms: _422  and  _423
REMARK  177  A    between atoms: _423  and  _424
REMARK  178  A    between atoms: _426  and  _428
REMARK  179  A    between atoms: _428  and  _429
REMARK  180  A    between atoms: _428  and  _431
REMARK  181  A    between atoms: _431  and  _432
REMARK  182  A    between atoms: _435  and  _437
REMARK  183  A    between atoms: _437  and  _438
REMARK  184  A    between atoms: _437  and  _440
REMARK  185  A    between atoms: _440  and  _441
REMARK  186  A    between atoms: _447  and  _449
REMARK  187  A    between atoms: _449  and  _450
REMARK  188  A    between atoms: _449  and  _452
REMARK  189  A    between atoms: _452  and  _453
REMARK  190  A    between atoms: _456  and  _458
REMARK  191  A    between atoms: _458  and  _459
REMARK  192  A    between atoms: _458  and  _461
REMARK  193  A    between atoms: _461  and  _462
REMARK  194  A    between atoms: _465  and  _467
REMARK  195  A    between atoms: _467  and  _468
REMARK  196  A    between atoms: _467  and  _470
REMARK  197  A    between atoms: _470  and  _471
REMARK  198  A    between atoms: _477  and  _479
REMARK  199  A    between atoms: _479  and  _480
REMARK  200  A    between atoms: _479  and  _482
REMARK  201  A    between atoms: _482  and  _483
REMARK  202  A    between atoms: _483  and  _484
REMARK  203  A    between atoms: _486  and  _488
REMARK  204  A    between atoms: _488  and  _489
REMARK  205  A    between atoms: _488  and  _491
REMARK  206  A    between atoms: _491  and  _492
REMARK  207  A    between atoms: _492  and  _493
REMARK  208  A    between atoms: _493  and  _494
REMARK  209  A    between atoms: _494  and  _495
REMARK  210  A    between atoms: _499  and  _501
REMARK  211  A    between atoms: _501  and  _502
REMARK  212  A    between atoms: _501  and  _504
REMARK  213  A    between atoms: _504  and  _505
REMARK  214  A    between atoms: _511  and  _513
REMARK  215  A    between atoms: _513  and  _514
REMARK  216  A    between atoms: _513  and  _516
REMARK  217  A    between atoms: _516  and  _517
REMARK  218  A    between atoms: _520  and  _522
REMARK  219  A    between atoms: _522  and  _523
REMARK  220  A    between atoms: _522  and  _525
REMARK  221  A    between atoms: _528  and  _530
REMARK  222  A    between atoms: _530  and  _531
REMARK  223  A    between atoms: _530  and  _533
REMARK  224  A    between atoms: _533  and  _534
REMARK  225  A    between atoms: _539  and  _541
REMARK  226  A    between atoms: _541  and  _542
REMARK  227  A    between atoms: _541  and  _544
REMARK  228  A    between atoms: _547  and  _549
REMARK  229  A    between atoms: _549  and  _550
REMARK  230  A    between atoms: _549  and  _552
REMARK  231  A    between atoms: _552  and  _553
REMARK  232  A    between atoms: _556  and  _558
REMARK  233  A    between atoms: _558  and  _559
REMARK  234  A    between atoms: _558  and  _561
REMARK  235  A    between atoms: _561  and  _562
REMARK  236  A    between atoms: _565  and  _567
REMARK  237  A    between atoms: _567  and  _568
REMARK  238  A    between atoms: _567  and  _570
REMARK  239  A    between atoms: _570  and  _571
REMARK  240  A    between atoms: _571  and  _572
REMARK  241  A    between atoms: _574  and  _576
REMARK  242  A    between atoms: _576  and  _577
REMARK  243  A    between atoms: _576  and  _579
REMARK  244  A    between atoms: _579  and  _580
REMARK  245  A    between atoms: _582  and  _584
REMARK  246  A    between atoms: _584  and  _585
REMARK  247  A    between atoms: _584  and  _587
REMARK  248  A    between atoms: _587  and  _588
REMARK  249  A    between atoms: _591  and  _593
REMARK  250  A    between atoms: _593  and  _594
REMARK  251  A    between atoms: _593  and  _596
REMARK  252  A    between atoms: _596  and  _597
REMARK  253  A    between atoms: _602  and  _604
REMARK  254  A    between atoms: _604  and  _605
REMARK  255  A    between atoms: _604  and  _607
REMARK  256  A    between atoms: _607  and  _608
REMARK  257  A    between atoms: _611  and  _613
REMARK  258  A    between atoms: _613  and  _614
REMARK  259  A    between atoms: _613  and  _616
REMARK  260  A    between atoms: _616  and  _617
REMARK  261  A    between atoms: _620  and  _622
REMARK  262  A    between atoms: _622  and  _623
REMARK  263  A    between atoms: _622  and  _625
REMARK  264  A    between atoms: _625  and  _626
REMARK  265  A    between atoms: _626  and  _627
REMARK  266  A    between atoms: _632  and  _634
REMARK  267  A    between atoms: _634  and  _635
REMARK  268  A    between atoms: _634  and  _637
REMARK  269  A    between atoms: _637  and  _638
REMARK  270  A    between atoms: _641  and  _643
REMARK  271  A    between atoms: _643  and  _644
REMARK  272  A    between atoms: _643  and  _646
REMARK  273  A    between atoms: _646  and  _647
REMARK  274  A    between atoms: _652  and  _653
REMARK                            x       y       z     vdW  Elec       q    Type
REMARK                         _______ _______ _______ _____ _____    ______ ____
ROOT
ATOM      1  O   HOH     1      12.976  19.662   9.406  0.00  0.00    +0.000 OA
ENDROOT
TORSDOF 0
REMARK  Name = ../refined-set-2016/2i4j/2i4j_pocket.pdb
REMARK  274 active torsions:
REMARK  status: ('A' for Active; 'I' for Inactive)
REMARK    1  A    between atoms: _1  and  _3
REMARK    2  A    between atoms: _3  and  _4
REMARK    3  A    between atoms: _3  and  _6
REMARK    4  A    between atoms: _6  and  _7
REMARK    5  A    between atoms: _12  and  _13
REMARK    6  A    between atoms: _15  and  _17
REMARK    7  A    between atoms: _17  and  _18
REMARK    8  A    between atoms: _17  and  _20
REMARK    9  A    between atoms: _20  and  _21
REMARK   10  A    between atoms: _23  and  _25
REMARK   11  A    between atoms: _25  and  _26
REMARK   12  A    between atoms: _25  and  _28
REMARK   13  A    between atoms: _28  and  _29
REMARK   14  A    between atoms: _36  and  _37
REMARK   15  A    between atoms: _42  and  _44
REMARK   16  A    between atoms: _44  and  _45
REMARK   17  A    between atoms: _44  and  _47
REMARK   18  A    between atoms: _47  and  _48
REMARK   19  A    between atoms: _51  and  _53
REMARK   20  A    between atoms: _53  and  _54
REMARK   21  A    between atoms: _53  and  _56
REMARK   22  A    between atoms: _56  and  _57
REMARK   23  A    between atoms: _60  and  _62
REMARK   24  A    between atoms: _62  and  _63
REMARK   25  A    between atoms: _62  and  _65
REMARK   26  A    between atoms: _65  and  _66
REMARK   27  A    between atoms: _72  and  _74
REMARK   28  A    between atoms: _74  and  _75
REMARK   29  A    between atoms: _74  and  _77
REMARK   30  A    between atoms: _77  and  _78
REMARK   31  A    between atoms: _78  and  _79
REMARK   32  A    between atoms: _84  and  _86
REMARK   33  A    between atoms: _86  and  _87
REMARK   34  A    between atoms: _89  and  _91
REMARK   35  A    between atoms: _91  and  _92
REMARK   36  A    between atoms: _91  and  _94
REMARK   37  A    between atoms: _96  and  _98
REMARK   38  A    between atoms: _98  and  _99
REMARK   39  A    between atoms: _98  and  _101
REMARK   40  A    between atoms: _101  and  _102
REMARK   41  A    between atoms: _102  and  _103
REMARK   42  A    between atoms: _108  and  _110
REMARK   43  A    between atoms: _110  and  _111
REMARK   44  A    between atoms: _110  and  _113
REMARK   45  A    between atoms: _113  and  _114
REMARK   46  A    between atoms: _120  and  _122
REMARK   47  A    between atoms: _122  and  _123
REMARK   48  A    between atoms: _122  and  _125
REMARK   49  A    between atoms: _125  and  _126
REMARK   50  A    between atoms: _126  and  _127
REMARK   51  A    between atoms: _127  and  _128
REMARK   52  A    between atoms: _137  and  _139
REMARK   53  A    between atoms: _139  and  _140
REMARK   54  A    between atoms: _139  and  _142
REMARK   55  A    between atoms: _142  and  _143
REMARK   56  A    between atoms: _145  and  _147
REMARK   57  A    between atoms: _147  and  _148
REMARK   58  A    between atoms: _147  and  _150
REMARK   59  A    between atoms: _153  and  _155
REMARK   60  A    between atoms: _155  and  _156
REMARK   61  A    between atoms: _155  and  _158
REMARK   62  A    between atoms: _158  and  _159
REMARK   63  A    between atoms: _159  and  _160
REMARK   64  A    between atoms: _163  and  _165
REMARK   65  A    between atoms: _165  and  _166
REMARK   66  A    between atoms: _169  and  _171
REMARK   67  A    between atoms: _171  and  _172
REMARK   68  A    between atoms: _171  and  _174
REMARK   69  A    between atoms: _177  and  _179
REMARK   70  A    between atoms: _179  and  _180
REMARK   71  A    between atoms: _179  and  _182
REMARK   72  A    between atoms: _182  and  _183
REMARK   73  A    between atoms: _183  and  _184
REMARK   74  A    between atoms: _189  and  _191
REMARK   75  A    between atoms: _191  and  _192
REMARK   76  A    between atoms: _191  and  _194
REMARK   77  A    between atoms: _194  and  _195
REMARK   78  A    between atoms: _195  and  _196
REMARK   79  A    between atoms: _199  and  _201
REMARK   80  A    between atoms: _201  and  _202
REMARK   81  A    between atoms: _201  and  _204
REMARK   82  A    between atoms: _204  and  _205
REMARK   83  A    between atoms: _208  and  _210
REMARK   84  A    between atoms: _210  and  _211
REMARK   85  A    between atoms: _210  and  _213
REMARK   86  A    between atoms: _213  and  _214
REMARK   87  A    between atoms: _217  and  _219
REMARK   88  A    between atoms: _219  and  _220
REMARK   89  A    between atoms: _219  and  _222
REMARK   90  A    between atoms: _222  and  _223
REMARK   91  A    between atoms: _228  and  _229
REMARK   92  A    between atoms: _231  and  _233
REMARK   93  A    between atoms: _233  and  _234
REMARK   94  A    between atoms: _233  and  _236
REMARK   95  A    between atoms: _239  and  _241
REMARK   96  A    between atoms: _241  and  _242
REMARK   97  A    between atoms: _241  and  _244
REMARK   98  A    between atoms: _244  and  _245
REMARK   99  A    between atoms: _250  and  _252
REMARK  100  A    between atoms: _252  and  _253
REMARK  101  A    between atoms: _252  and  _255
REMARK  102  A    between atoms: _255  and  _256
REMARK  103  A    between atoms: _256  and  _257
REMARK  104  A    between atoms: _260  and  _262
REMARK  105  A    between atoms: _262  and  _263
REMARK  106  A    between atoms: _262  and  _265
REMARK  107  A    between atoms: _265  and  _266
REMARK  108  A    between atoms: _269  and  _271
REMARK  109  A    between atoms: _271  and  _272
REMARK  110  A    between atoms: _271  and  _274
REMARK  111  A    between atoms: _274  and  _275
REMARK  112  A    between atoms: _278  and  _280
REMARK  113  A    between atoms: _280  and  _281
REMARK  114  A    between atoms: _280  and  _283
REMARK  115  A    between atoms: _283  and  _284
REMARK  116  A    between atoms: _289  and  _290
REMARK  117  A    between atoms: _292  and  _294
REMARK  118  A    between atoms: _294  and  _295
REMARK  119  A    between atoms: _294  and  _297
REMARK  120  A    between atoms: _297  and  _298
REMARK  121  A    between atoms: _301  and  _303
REMARK  122  A    between atoms: _303  and  _304
REMARK  123  A    between atoms: _303  and  _306
REMARK  124  A    between atoms: _306  and  _307
REMARK  125  A    between atoms: _307  and  _308
REMARK  126  A    between atoms: _310  and  _312
REMARK  127  A    between atoms: _312  and  _313
REMARK  128  A    between atoms: _312  and  _315
REMARK  129  A    between atoms: _315  and  _316
REMARK  130  A    between atoms: _319  and  _321
REMARK  131  A    between atoms: _321  and  _322
REMARK  132  A    between atoms: _325  and  _327
REMARK  133  A    between atoms: _327  and  _328
REMARK  134  A    between atoms: _327  and  _330
REMARK  135  A    between atoms: _330  and  _331
REMARK  136  A    between atoms: _333  and  _335
REMARK  137  A    between atoms: _335  and  _336
REMARK  138  A    between atoms: _335  and  _338
REMARK  139  A    between atoms: _338  and  _339
REMARK  140  A    between atoms: _342  and  _344
REMARK  141  A    between atoms: _344  and  _345
REMARK  142  A    between atoms: _344  and  _347
REMARK  143  A    between atoms: _347  and  _348
REMARK  144  A    between atoms: _348  and  _349
REMARK  145  A    between atoms: _351  and  _353
REMARK  146  A    between atoms: _353  and  _354
REMARK  147  A    between atoms: _356  and  _358
REMARK  148  A    between atoms: _358  and  _359
REMARK  149  A    between atoms: _358  and  _361
REMARK  150  A    between atoms: _364  and  _366
REMARK  151  A    between atoms: _366  and  _367
REMARK  152  A    between atoms: _366  and  _369
REMARK  153  A    between atoms: _369  and  _370
REMARK  154  A    between atoms: _373  and  _375
REMARK  155  A    between atoms: _375  and  _376
REMARK  156  A    between atoms: _375  and  _378
REMARK  157  A    between atoms: _378  and  _379
REMARK  158  A    between atoms: _382  and  _384
REMARK  159  A    between atoms: _384  and  _385
REMARK  160  A    between atoms: _384  and  _387
REMARK  161  A    between atoms: _387  and  _388
REMARK  162  A    between atoms: _390  and  _392
REMARK  163  A    between atoms: _392  and  _393
REMARK  164  A    between atoms: _392  and  _395
REMARK  165  A    between atoms: _395  and  _396
REMARK  166  A    between atoms: _396  and  _397
REMARK  167  A    between atoms: _400  and  _402
REMARK  168  A    between atoms: _402  and  _403
REMARK  169  A    between atoms: _405  and  _407
REMARK  170  A    between atoms: _407  and  _408
REMARK  171  A    between atoms: _407  and  _410
REMARK  172  A    between atoms: _410  and  _411
REMARK  173  A    between atoms: _417  and  _419
REMARK  174  A    between atoms: _419  and  _420
REMARK  175  A    between atoms: _419  and  _422
REMARK  176  A    between atoms: _422  and  _423
REMARK  177  A    between atoms: _423  and  _424
REMARK  178  A    between atoms: _426  and  _428
REMARK  179  A    between atoms: _428  and  _429
REMARK  180  A    between atoms: _428  and  _431
REMARK  181  A    between atoms: _431  and  _432
REMARK  182  A    between atoms: _435  and  _437
REMARK  183  A    between atoms: _437  and  _438
REMARK  184  A    between atoms: _437  and  _440
REMARK  185  A    between atoms: _440  and  _441
REMARK  186  A    between atoms: _447  and  _449
REMARK  187  A    between atoms: _449  and  _450
REMARK  188  A    between atoms: _449  and  _452
REMARK  189  A    between atoms: _452  and  _453
REMARK  190  A    between atoms: _456  and  _458
REMARK  191  A    between atoms: _458  and  _459
REMARK  192  A    between atoms: _458  and  _461
REMARK  193  A    between atoms: _461  and  _462
REMARK  194  A    between atoms: _465  and  _467
REMARK  195  A    between atoms: _467  and  _468
REMARK  196  A    between atoms: _467  and  _470
REMARK  197  A    between atoms: _470  and  _471
REMARK  198  A    between atoms: _477  and  _479
REMARK  199  A    between atoms: _479  and  _480
REMARK  200  A    between atoms: _479  and  _482
REMARK  201  A    between atoms: _482  and  _483
REMARK  202  A    between atoms: _483  and  _484
REMARK  203  A    between atoms: _486  and  _488
REMARK  204  A    between atoms: _488  and  _489
REMARK  205  A    between atoms: _488  and  _491
REMARK  206  A    between atoms: _491  and  _492
REMARK  207  A    between atoms: _492  and  _493
REMARK  208  A    between atoms: _493  and  _494
REMARK  209  A    between atoms: _494  and  _495
REMARK  210  A    between atoms: _499  and  _501
REMARK  211  A    between atoms: _501  and  _502
REMARK  212  A    between atoms: _501  and  _504
REMARK  213  A    between atoms: _504  and  _505
REMARK  214  A    between atoms: _511  and  _513
REMARK  215  A    between atoms: _513  and  _514
REMARK  216  A    between atoms: _513  and  _516
REMARK  217  A    between atoms: _516  and  _517
REMARK  218  A    between atoms: _520  and  _522
REMARK  219  A    between atoms: _522  and  _523
REMARK  220  A    between atoms: _522  and  _525
REMARK  221  A    between atoms: _528  and  _530
REMARK  222  A    between atoms: _530  and  _531
REMARK  223  A    between atoms: _530  and  _533
REMARK  224  A    between atoms: _533  and  _534
REMARK  225  A    between atoms: _539  and  _541
REMARK  226  A    between atoms: _541  and  _542
REMARK  227  A    between atoms: _541  and  _544
REMARK  228  A    between atoms: _547  and  _549
REMARK  229  A    between atoms: _549  and  _550
REMARK  230  A    between atoms: _549  and  _552
REMARK  231  A    between atoms: _552  and  _553
REMARK  232  A    between atoms: _556  and  _558
REMARK  233  A    between atoms: _558  and  _559
REMARK  234  A    between atoms: _558  and  _561
REMARK  235  A    between atoms: _561  and  _562
REMARK  236  A    between atoms: _565  and  _567
REMARK  237  A    between atoms: _567  and  _568
REMARK  238  A    between atoms: _567  and  _570
REMARK  239  A    between atoms: _570  and  _571
REMARK  240  A    between atoms: _571  and  _572
REMARK  241  A    between atoms: _574  and  _576
REMARK  242  A    between atoms: _576  and  _577
REMARK  243  A    between atoms: _576  and  _579
REMARK  244  A    between atoms: _579  and  _580
REMARK  245  A    between atoms: _582  and  _584
REMARK  246  A    between atoms: _584  and  _585
REMARK  247  A    between atoms: _584  and  _587
REMARK  248  A    between atoms: _587  and  _588
REMARK  249  A    between atoms: _591  and  _593
REMARK  250  A    between atoms: _593  and  _594
REMARK  251  A    between atoms: _593  and  _596
REMARK  252  A    between atoms: _596  and  _597
REMARK  253  A    between atoms: _602  and  _604
REMARK  254  A    between atoms: _604  and  _605
REMARK  255  A    between atoms: _604  and  _607
REMARK  256  A    between atoms: _607  and  _608
REMARK  257  A    between atoms: _611  and  _613
REMARK  258  A    between atoms: _613  and  _614
REMARK  259  A    between atoms: _613  and  _616
REMARK  260  A    between atoms: _616  and  _617
REMARK  261  A    between atoms: _620  and  _622
REMARK  262  A    between atoms: _622  and  _623
REMARK  263  A    between atoms: _622  and  _625
REMARK  264  A    between atoms: _625  and  _626
REMARK  265  A    between atoms: _626  and  _627
REMARK  266  A    between atoms: _632  and  _634
REMARK  267  A    between atoms: _634  and  _635
REMARK  268  A    between atoms: _634  and  _637
REMARK  269  A    between atoms: _637  and  _638
REMARK  270  A    between atoms: _641  and  _643
REMARK  271  A    between atoms: _643  and  _644
REMARK  272  A    between atoms: _643  and  _646
REMARK  273  A    between atoms: _646  and  _647
REMARK  274  A    between atoms: _652  and  _653
REMARK                            x       y       z     vdW  Elec       q    Type
REMARK                         _______ _______ _______ _____ _____    ______ ____
ROOT
ATOM      1  O   HOH     1       5.977  17.672  12.324  0.00  0.00    +0.000 OA
ENDROOT
TORSDOF 0
REMARK  Name = ../refined-set-2016/2i4j/2i4j_pocket.pdb
REMARK  274 active torsions:
REMARK  status: ('A' for Active; 'I' for Inactive)
REMARK    1  A    between atoms: _1  and  _3
REMARK    2  A    between atoms: _3  and  _4
REMARK    3  A    between atoms: _3  and  _6
REMARK    4  A    between atoms: _6  and  _7
REMARK    5  A    between atoms: _12  and  _13
REMARK    6  A    between atoms: _15  and  _17
REMARK    7  A    between atoms: _17  and  _18
REMARK    8  A    between atoms: _17  and  _20
REMARK    9  A    between atoms: _20  and  _21
REMARK   10  A    between atoms: _23  and  _25
REMARK   11  A    between atoms: _25  and  _26
REMARK   12  A    between atoms: _25  and  _28
REMARK   13  A    between atoms: _28  and  _29
REMARK   14  A    between atoms: _36  and  _37
REMARK   15  A    between atoms: _42  and  _44
REMARK   16  A    between atoms: _44  and  _45
REMARK   17  A    between atoms: _44  and  _47
REMARK   18  A    between atoms: _47  and  _48
REMARK   19  A    between atoms: _51  and  _53
REMARK   20  A    between atoms: _53  and  _54
REMARK   21  A    between atoms: _53  and  _56
REMARK   22  A    between atoms: _56  and  _57
REMARK   23  A    between atoms: _60  and  _62
REMARK   24  A    between atoms: _62  and  _63
REMARK   25  A    between atoms: _62  and  _65
REMARK   26  A    between atoms: _65  and  _66
REMARK   27  A    between atoms: _72  and  _74
REMARK   28  A    between atoms: _74  and  _75
REMARK   29  A    between atoms: _74  and  _77
REMARK   30  A    between atoms: _77  and  _78
REMARK   31  A    between atoms: _78  and  _79
REMARK   32  A    between atoms: _84  and  _86
REMARK   33  A    between atoms: _86  and  _87
REMARK   34  A    between atoms: _89  and  _91
REMARK   35  A    between atoms: _91  and  _92
REMARK   36  A    between atoms: _91  and  _94
REMARK   37  A    between atoms: _96  and  _98
REMARK   38  A    between atoms: _98  and  _99
REMARK   39  A    between atoms: _98  and  _101
REMARK   40  A    between atoms: _101  and  _102
REMARK   41  A    between atoms: _102  and  _103
REMARK   42  A    between atoms: _108  and  _110
REMARK   43  A    between atoms: _110  and  _111
REMARK   44  A    between atoms: _110  and  _113
REMARK   45  A    between atoms: _113  and  _114
REMARK   46  A    between atoms: _120  and  _122
REMARK   47  A    between atoms: _122  and  _123
REMARK   48  A    between atoms: _122  and  _125
REMARK   49  A    between atoms: _125  and  _126
REMARK   50  A    between atoms: _126  and  _127
REMARK   51  A    between atoms: _127  and  _128
REMARK   52  A    between atoms: _137  and  _139
REMARK   53  A    between atoms: _139  and  _140
REMARK   54  A    between atoms: _139  and  _142
REMARK   55  A    between atoms: _142  and  _143
REMARK   56  A    between atoms: _145  and  _147
REMARK   57  A    between atoms: _147  and  _148
REMARK   58  A    between atoms: _147  and  _150
REMARK   59  A    between atoms: _153  and  _155
REMARK   60  A    between atoms: _155  and  _156
REMARK   61  A    between atoms: _155  and  _158
REMARK   62  A    between atoms: _158  and  _159
REMARK   63  A    between atoms: _159  and  _160
REMARK   64  A    between atoms: _163  and  _165
REMARK   65  A    between atoms: _165  and  _166
REMARK   66  A    between atoms: _169  and  _171
REMARK   67  A    between atoms: _171  and  _172
REMARK   68  A    between atoms: _171  and  _174
REMARK   69  A    between atoms: _177  and  _179
REMARK   70  A    between atoms: _179  and  _180
REMARK   71  A    between atoms: _179  and  _182
REMARK   72  A    between atoms: _182  and  _183
REMARK   73  A    between atoms: _183  and  _184
REMARK   74  A    between atoms: _189  and  _191
REMARK   75  A    between atoms: _191  and  _192
REMARK   76  A    between atoms: _191  and  _194
REMARK   77  A    between atoms: _194  and  _195
REMARK   78  A    between atoms: _195  and  _196
REMARK   79  A    between atoms: _199  and  _201
REMARK   80  A    between atoms: _201  and  _202
REMARK   81  A    between atoms: _201  and  _204
REMARK   82  A    between atoms: _204  and  _205
REMARK   83  A    between atoms: _208  and  _210
REMARK   84  A    between atoms: _210  and  _211
REMARK   85  A    between atoms: _210  and  _213
REMARK   86  A    between atoms: _213  and  _214
REMARK   87  A    between atoms: _217  and  _219
REMARK   88  A    between atoms: _219  and  _220
REMARK   89  A    between atoms: _219  and  _222
REMARK   90  A    between atoms: _222  and  _223
REMARK   91  A    between atoms: _228  and  _229
REMARK   92  A    between atoms: _231  and  _233
REMARK   93  A    between atoms: _233  and  _234
REMARK   94  A    between atoms: _233  and  _236
REMARK   95  A    between atoms: _239  and  _241
REMARK   96  A    between atoms: _241  and  _242
REMARK   97  A    between atoms: _241  and  _244
REMARK   98  A    between atoms: _244  and  _245
REMARK   99  A    between atoms: _250  and  _252
REMARK  100  A    between atoms: _252  and  _253
REMARK  101  A    between atoms: _252  and  _255
REMARK  102  A    between atoms: _255  and  _256
REMARK  103  A    between atoms: _256  and  _257
REMARK  104  A    between atoms: _260  and  _262
REMARK  105  A    between atoms: _262  and  _263
REMARK  106  A    between atoms: _262  and  _265
REMARK  107  A    between atoms: _265  and  _266
REMARK  108  A    between atoms: _269  and  _271
REMARK  109  A    between atoms: _271  and  _272
REMARK  110  A    between atoms: _271  and  _274
REMARK  111  A    between atoms: _274  and  _275
REMARK  112  A    between atoms: _278  and  _280
REMARK  113  A    between atoms: _280  and  _281
REMARK  114  A    between atoms: _280  and  _283
REMARK  115  A    between atoms: _283  and  _284
REMARK  116  A    between atoms: _289  and  _290
REMARK  117  A    between atoms: _292  and  _294
REMARK  118  A    between atoms: _294  and  _295
REMARK  119  A    between atoms: _294  and  _297
REMARK  120  A    between atoms: _297  and  _298
REMARK  121  A    between atoms: _301  and  _303
REMARK  122  A    between atoms: _303  and  _304
REMARK  123  A    between atoms: _303  and  _306
REMARK  124  A    between atoms: _306  and  _307
REMARK  125  A    between atoms: _307  and  _308
REMARK  126  A    between atoms: _310  and  _312
REMARK  127  A    between atoms: _312  and  _313
REMARK  128  A    between atoms: _312  and  _315
REMARK  129  A    between atoms: _315  and  _316
REMARK  130  A    between atoms: _319  and  _321
REMARK  131  A    between atoms: _321  and  _322
REMARK  132  A    between atoms: _325  and  _327
REMARK  133  A    between atoms: _327  and  _328
REMARK  134  A    between atoms: _327  and  _330
REMARK  135  A    between atoms: _330  and  _331
REMARK  136  A    between atoms: _333  and  _335
REMARK  137  A    between atoms: _335  and  _336
REMARK  138  A    between atoms: _335  and  _338
REMARK  139  A    between atoms: _338  and  _339
REMARK  140  A    between atoms: _342  and  _344
REMARK  141  A    between atoms: _344  and  _345
REMARK  142  A    between atoms: _344  and  _347
REMARK  143  A    between atoms: _347  and  _348
REMARK  144  A    between atoms: _348  and  _349
REMARK  145  A    between atoms: _351  and  _353
REMARK  146  A    between atoms: _353  and  _354
REMARK  147  A    between atoms: _356  and  _358
REMARK  148  A    between atoms: _358  and  _359
REMARK  149  A    between atoms: _358  and  _361
REMARK  150  A    between atoms: _364  and  _366
REMARK  151  A    between atoms: _366  and  _367
REMARK  152  A    between atoms: _366  and  _369
REMARK  153  A    between atoms: _369  and  _370
REMARK  154  A    between atoms: _373  and  _375
REMARK  155  A    between atoms: _375  and  _376
REMARK  156  A    between atoms: _375  and  _378
REMARK  157  A    between atoms: _378  and  _379
REMARK  158  A    between atoms: _382  and  _384
REMARK  159  A    between atoms: _384  and  _385
REMARK  160  A    between atoms: _384  and  _387
REMARK  161  A    between atoms: _387  and  _388
REMARK  162  A    between atoms: _390  and  _392
REMARK  163  A    between atoms: _392  and  _393
REMARK  164  A    between atoms: _392  and  _395
REMARK  165  A    between atoms: _395  and  _396
REMARK  166  A    between atoms: _396  and  _397
REMARK  167  A    between atoms: _400  and  _402
REMARK  168  A    between atoms: _402  and  _403
REMARK  169  A    between atoms: _405  and  _407
REMARK  170  A    between atoms: _407  and  _408
REMARK  171  A    between atoms: _407  and  _410
REMARK  172  A    between atoms: _410  and  _411
REMARK  173  A    between atoms: _417  and  _419
REMARK  174  A    between atoms: _419  and  _420
REMARK  175  A    between atoms: _419  and  _422
REMARK  176  A    between atoms: _422  and  _423
REMARK  177  A    between atoms: _423  and  _424
REMARK  178  A    between atoms: _426  and  _428
REMARK  179  A    between atoms: _428  and  _429
REMARK  180  A    between atoms: _428  and  _431
REMARK  181  A    between atoms: _431  and  _432
REMARK  182  A    between atoms: _435  and  _437
REMARK  183  A    between atoms: _437  and  _438
REMARK  184  A    between atoms: _437  and  _440
REMARK  185  A    between atoms: _440  and  _441
REMARK  186  A    between atoms: _447  and  _449
REMARK  187  A    between atoms: _449  and  _450
REMARK  188  A    between atoms: _449  and  _452
REMARK  189  A    between atoms: _452  and  _453
REMARK  190  A    between atoms: _456  and  _458
REMARK  191  A    between atoms: _458  and  _459
REMARK  192  A    between atoms: _458  and  _461
REMARK  193  A    between atoms: _461  and  _462
REMARK  194  A    between atoms: _465  and  _467
REMARK  195  A    between atoms: _467  and  _468
REMARK  196  A    between atoms: _467  and  _470
REMARK  197  A    between atoms: _470  and  _471
REMARK  198  A    between atoms: _477  and  _479
REMARK  199  A    between atoms: _479  and  _480
REMARK  200  A    between atoms: _479  and  _482
REMARK  201  A    between atoms: _482  and  _483
REMARK  202  A    between atoms: _483  and  _484
REMARK  203  A    between atoms: _486  and  _488
REMARK  204  A    between atoms: _488  and  _489
REMARK  205  A    between atoms: _488  and  _491
REMARK  206  A    between atoms: _491  and  _492
REMARK  207  A    between atoms: _492  and  _493
REMARK  208  A    between atoms: _493  and  _494
REMARK  209  A    between atoms: _494  and  _495
REMARK  210  A    between atoms: _499  and  _501
REMARK  211  A    between atoms: _501  and  _502
REMARK  212  A    between atoms: _501  and  _504
REMARK  213  A    between atoms: _504  and  _505
REMARK  214  A    between atoms: _511  and  _513
REMARK  215  A    between atoms: _513  and  _514
REMARK  216  A    between atoms: _513  and  _516
REMARK  217  A    between atoms: _516  and  _517
REMARK  218  A    between atoms: _520  and  _522
REMARK  219  A    between atoms: _522  and  _523
REMARK  220  A    between atoms: _522  and  _525
REMARK  221  A    between atoms: _528  and  _530
REMARK  222  A    between atoms: _530  and  _531
REMARK  223  A    between atoms: _530  and  _533
REMARK  224  A    between atoms: _533  and  _534
REMARK  225  A    between atoms: _539  and  _541
REMARK  226  A    between atoms: _541  and  _542
REMARK  227  A    between atoms: _541  and  _544
REMARK  228  A    between atoms: _547  and  _549
REMARK  229  A    between atoms: _549  and  _550
REMARK  230  A    between atoms: _549  and  _552
REMARK  231  A    between atoms: _552  and  _553
REMARK  232  A    between atoms: _556  and  _558
REMARK  233  A    between atoms: _558  and  _559
REMARK  234  A    between atoms: _558  and  _561
REMARK  235  A    between atoms: _561  and  _562
REMARK  236  A    between atoms: _565  and  _567
REMARK  237  A    between atoms: _567  and  _568
REMARK  238  A    between atoms: _567  and  _570
REMARK  239  A    between atoms: _570  and  _571
REMARK  240  A    between atoms: _571  and  _572
REMARK  241  A    between atoms: _574  and  _576
REMARK  242  A    between atoms: _576  and  _577
REMARK  243  A    between atoms: _576  and  _579
REMARK  244  A    between atoms: _579  and  _580
REMARK  245  A    between atoms: _582  and  _584
REMARK  246  A    between atoms: _584  and  _585
REMARK  247  A    between atoms: _584  and  _587
REMARK  248  A    between atoms: _587  and  _588
REMARK  249  A    between atoms: _591  and  _593
REMARK  250  A    between atoms: _593  and  _594
REMARK  251  A    between atoms: _593  and  _596
REMARK  252  A    between atoms: _596  and  _597
REMARK  253  A    between atoms: _602  and  _604
REMARK  254  A    between atoms: _604  and  _605
REMARK  255  A    between atoms: _604  and  _607
REMARK  256  A    between atoms: _607  and  _608
REMARK  257  A    between atoms: _611  and  _613
REMARK  258  A    between atoms: _613  and  _614
REMARK  259  A    between atoms: _613  and  _616
REMARK  260  A    between atoms: _616  and  _617
REMARK  261  A    between atoms: _620  and  _622
REMARK  262  A    between atoms: _622  and  _623
REMARK  263  A    between atoms: _622  and  _625
REMARK  264  A    between atoms: _625  and  _626
REMARK  265  A    between atoms: _626  and  _627
REMARK  266  A    between atoms: _632  and  _634
REMARK  267  A    between atoms: _634  and  _635
REMARK  268  A    between atoms: _634  and  _637
REMARK  269  A    between atoms: _637  and  _638
REMARK  270  A    between atoms: _641  and  _643
REMARK  271  A    between atoms: _643  and  _644
REMARK  272  A    between atoms: _643  and  _646
REMARK  273  A    between atoms: _646  and  _647
REMARK  274  A    between atoms: _652  and  _653
REMARK                            x       y       z     vdW  Elec       q    Type
REMARK                         _______ _______ _______ _____ _____    ______ ____
ROOT
ATOM      1  O   HOH     1       8.168  16.465  10.737  0.00  0.00    +0.000 OA
ENDROOT
TORSDOF 0
REMARK  Name = ../refined-set-2016/2i4j/2i4j_pocket.pdb
REMARK  274 active torsions:
REMARK  status: ('A' for Active; 'I' for Inactive)
REMARK    1  A    between atoms: _1  and  _3
REMARK    2  A    between atoms: _3  and  _4
REMARK    3  A    between atoms: _3  and  _6
REMARK    4  A    between atoms: _6  and  _7
REMARK    5  A    between atoms: _12  and  _13
REMARK    6  A    between atoms: _15  and  _17
REMARK    7  A    between atoms: _17  and  _18
REMARK    8  A    between atoms: _17  and  _20
REMARK    9  A    between atoms: _20  and  _21
REMARK   10  A    between atoms: _23  and  _25
REMARK   11  A    between atoms: _25  and  _26
REMARK   12  A    between atoms: _25  and  _28
REMARK   13  A    between atoms: _28  and  _29
REMARK   14  A    between atoms: _36  and  _37
REMARK   15  A    between atoms: _42  and  _44
REMARK   16  A    between atoms: _44  and  _45
REMARK   17  A    between atoms: _44  and  _47
REMARK   18  A    between atoms: _47  and  _48
REMARK   19  A    between atoms: _51  and  _53
REMARK   20  A    between atoms: _53  and  _54
REMARK   21  A    between atoms: _53  and  _56
REMARK   22  A    between atoms: _56  and  _57
REMARK   23  A    between atoms: _60  and  _62
REMARK   24  A    between atoms: _62  and  _63
REMARK   25  A    between atoms: _62  and  _65
REMARK   26  A    between atoms: _65  and  _66
REMARK   27  A    between atoms: _72  and  _74
REMARK   28  A    between atoms: _74  and  _75
REMARK   29  A    between atoms: _74  and  _77
REMARK   30  A    between atoms: _77  and  _78
REMARK   31  A    between atoms: _78  and  _79
REMARK   32  A    between atoms: _84  and  _86
REMARK   33  A    between atoms: _86  and  _87
REMARK   34  A    between atoms: _89  and  _91
REMARK   35  A    between atoms: _91  and  _92
REMARK   36  A    between atoms: _91  and  _94
REMARK   37  A    between atoms: _96  and  _98
REMARK   38  A    between atoms: _98  and  _99
REMARK   39  A    between atoms: _98  and  _101
REMARK   40  A    between atoms: _101  and  _102
REMARK   41  A    between atoms: _102  and  _103
REMARK   42  A    between atoms: _108  and  _110
REMARK   43  A    between atoms: _110  and  _111
REMARK   44  A    between atoms: _110  and  _113
REMARK   45  A    between atoms: _113  and  _114
REMARK   46  A    between atoms: _120  and  _122
REMARK   47  A    between atoms: _122  and  _123
REMARK   48  A    between atoms: _122  and  _125
REMARK   49  A    between atoms: _125  and  _126
REMARK   50  A    between atoms: _126  and  _127
REMARK   51  A    between atoms: _127  and  _128
REMARK   52  A    between atoms: _137  and  _139
REMARK   53  A    between atoms: _139  and  _140
REMARK   54  A    between atoms: _139  and  _142
REMARK   55  A    between atoms: _142  and  _143
REMARK   56  A    between atoms: _145  and  _147
REMARK   57  A    between atoms: _147  and  _148
REMARK   58  A    between atoms: _147  and  _150
REMARK   59  A    between atoms: _153  and  _155
REMARK   60  A    between atoms: _155  and  _156
REMARK   61  A    between atoms: _155  and  _158
REMARK   62  A    between atoms: _158  and  _159
REMARK   63  A    between atoms: _159  and  _160
REMARK   64  A    between atoms: _163  and  _165
REMARK   65  A    between atoms: _165  and  _166
REMARK   66  A    between atoms: _169  and  _171
REMARK   67  A    between atoms: _171  and  _172
REMARK   68  A    between atoms: _171  and  _174
REMARK   69  A    between atoms: _177  and  _179
REMARK   70  A    between atoms: _179  and  _180
REMARK   71  A    between atoms: _179  and  _182
REMARK   72  A    between atoms: _182  and  _183
REMARK   73  A    between atoms: _183  and  _184
REMARK   74  A    between atoms: _189  and  _191
REMARK   75  A    between atoms: _191  and  _192
REMARK   76  A    between atoms: _191  and  _194
REMARK   77  A    between atoms: _194  and  _195
REMARK   78  A    between atoms: _195  and  _196
REMARK   79  A    between atoms: _199  and  _201
REMARK   80  A    between atoms: _201  and  _202
REMARK   81  A    between atoms: _201  and  _204
REMARK   82  A    between atoms: _204  and  _205
REMARK   83  A    between atoms: _208  and  _210
REMARK   84  A    between atoms: _210  and  _211
REMARK   85  A    between atoms: _210  and  _213
REMARK   86  A    between atoms: _213  and  _214
REMARK   87  A    between atoms: _217  and  _219
REMARK   88  A    between atoms: _219  and  _220
REMARK   89  A    between atoms: _219  and  _222
REMARK   90  A    between atoms: _222  and  _223
REMARK   91  A    between atoms: _228  and  _229
REMARK   92  A    between atoms: _231  and  _233
REMARK   93  A    between atoms: _233  and  _234
REMARK   94  A    between atoms: _233  and  _236
REMARK   95  A    between atoms: _239  and  _241
REMARK   96  A    between atoms: _241  and  _242
REMARK   97  A    between atoms: _241  and  _244
REMARK   98  A    between atoms: _244  and  _245
REMARK   99  A    between atoms: _250  and  _252
REMARK  100  A    between atoms: _252  and  _253
REMARK  101  A    between atoms: _252  and  _255
REMARK  102  A    between atoms: _255  and  _256
REMARK  103  A    between atoms: _256  and  _257
REMARK  104  A    between atoms: _260  and  _262
REMARK  105  A    between atoms: _262  and  _263
REMARK  106  A    between atoms: _262  and  _265
REMARK  107  A    between atoms: _265  and  _266
REMARK  108  A    between atoms: _269  and  _271
REMARK  109  A    between atoms: _271  and  _272
REMARK  110  A    between atoms: _271  and  _274
REMARK  111  A    between atoms: _274  and  _275
REMARK  112  A    between atoms: _278  and  _280
REMARK  113  A    between atoms: _280  and  _281
REMARK  114  A    between atoms: _280  and  _283
REMARK  115  A    between atoms: _283  and  _284
REMARK  116  A    between atoms: _289  and  _290
REMARK  117  A    between atoms: _292  and  _294
REMARK  118  A    between atoms: _294  and  _295
REMARK  119  A    between atoms: _294  and  _297
REMARK  120  A    between atoms: _297  and  _298
REMARK  121  A    between atoms: _301  and  _303
REMARK  122  A    between atoms: _303  and  _304
REMARK  123  A    between atoms: _303  and  _306
REMARK  124  A    between atoms: _306  and  _307
REMARK  125  A    between atoms: _307  and  _308
REMARK  126  A    between atoms: _310  and  _312
REMARK  127  A    between atoms: _312  and  _313
REMARK  128  A    between atoms: _312  and  _315
REMARK  129  A    between atoms: _315  and  _316
REMARK  130  A    between atoms: _319  and  _321
REMARK  131  A    between atoms: _321  and  _322
REMARK  132  A    between atoms: _325  and  _327
REMARK  133  A    between atoms: _327  and  _328
REMARK  134  A    between atoms: _327  and  _330
REMARK  135  A    between atoms: _330  and  _331
REMARK  136  A    between atoms: _333  and  _335
REMARK  137  A    between atoms: _335  and  _336
REMARK  138  A    between atoms: _335  and  _338
REMARK  139  A    between atoms: _338  and  _339
REMARK  140  A    between atoms: _342  and  _344
REMARK  141  A    between atoms: _344  and  _345
REMARK  142  A    between atoms: _344  and  _347
REMARK  143  A    between atoms: _347  and  _348
REMARK  144  A    between atoms: _348  and  _349
REMARK  145  A    between atoms: _351  and  _353
REMARK  146  A    between atoms: _353  and  _354
REMARK  147  A    between atoms: _356  and  _358
REMARK  148  A    between atoms: _358  and  _359
REMARK  149  A    between atoms: _358  and  _361
REMARK  150  A    between atoms: _364  and  _366
REMARK  151  A    between atoms: _366  and  _367
REMARK  152  A    between atoms: _366  and  _369
REMARK  153  A    between atoms: _369  and  _370
REMARK  154  A    between atoms: _373  and  _375
REMARK  155  A    between atoms: _375  and  _376
REMARK  156  A    between atoms: _375  and  _378
REMARK  157  A    between atoms: _378  and  _379
REMARK  158  A    between atoms: _382  and  _384
REMARK  159  A    between atoms: _384  and  _385
REMARK  160  A    between atoms: _384  and  _387
REMARK  161  A    between atoms: _387  and  _388
REMARK  162  A    between atoms: _390  and  _392
REMARK  163  A    between atoms: _392  and  _393
REMARK  164  A    between atoms: _392  and  _395
REMARK  165  A    between atoms: _395  and  _396
REMARK  166  A    between atoms: _396  and  _397
REMARK  167  A    between atoms: _400  and  _402
REMARK  168  A    between atoms: _402  and  _403
REMARK  169  A    between atoms: _405  and  _407
REMARK  170  A    between atoms: _407  and  _408
REMARK  171  A    between atoms: _407  and  _410
REMARK  172  A    between atoms: _410  and  _411
REMARK  173  A    between atoms: _417  and  _419
REMARK  174  A    between atoms: _419  and  _420
REMARK  175  A    between atoms: _419  and  _422
REMARK  176  A    between atoms: _422  and  _423
REMARK  177  A    between atoms: _423  and  _424
REMARK  178  A    between atoms: _426  and  _428
REMARK  179  A    between atoms: _428  and  _429
REMARK  180  A    between atoms: _428  and  _431
REMARK  181  A    between atoms: _431  and  _432
REMARK  182  A    between atoms: _435  and  _437
REMARK  183  A    between atoms: _437  and  _438
REMARK  184  A    between atoms: _437  and  _440
REMARK  185  A    between atoms: _440  and  _441
REMARK  186  A    between atoms: _447  and  _449
REMARK  187  A    between atoms: _449  and  _450
REMARK  188  A    between atoms: _449  and  _452
REMARK  189  A    between atoms: _452  and  _453
REMARK  190  A    between atoms: _456  and  _458
REMARK  191  A    between atoms: _458  and  _459
REMARK  192  A    between atoms: _458  and  _461
REMARK  193  A    between atoms: _461  and  _462
REMARK  194  A    between atoms: _465  and  _467
REMARK  195  A    between atoms: _467  and  _468
REMARK  196  A    between atoms: _467  and  _470
REMARK  197  A    between atoms: _470  and  _471
REMARK  198  A    between atoms: _477  and  _479
REMARK  199  A    between atoms: _479  and  _480
REMARK  200  A    between atoms: _479  and  _482
REMARK  201  A    between atoms: _482  and  _483
REMARK  202  A    between atoms: _483  and  _484
REMARK  203  A    between atoms: _486  and  _488
REMARK  204  A    between atoms: _488  and  _489
REMARK  205  A    between atoms: _488  and  _491
REMARK  206  A    between atoms: _491  and  _492
REMARK  207  A    between atoms: _492  and  _493
REMARK  208  A    between atoms: _493  and  _494
REMARK  209  A    between atoms: _494  and  _495
REMARK  210  A    between atoms: _499  and  _501
REMARK  211  A    between atoms: _501  and  _502
REMARK  212  A    between atoms: _501  and  _504
REMARK  213  A    between atoms: _504  and  _505
REMARK  214  A    between atoms: _511  and  _513
REMARK  215  A    between atoms: _513  and  _514
REMARK  216  A    between atoms: _513  and  _516
REMARK  217  A    between atoms: _516  and  _517
REMARK  218  A    between atoms: _520  and  _522
REMARK  219  A    between atoms: _522  and  _523
REMARK  220  A    between atoms: _522  and  _525
REMARK  221  A    between atoms: _528  and  _530
REMARK  222  A    between atoms: _530  and  _531
REMARK  223  A    between atoms: _530  and  _533
REMARK  224  A    between atoms: _533  and  _534
REMARK  225  A    between atoms: _539  and  _541
REMARK  226  A    between atoms: _541  and  _542
REMARK  227  A    between atoms: _541  and  _544
REMARK  228  A    between atoms: _547  and  _549
REMARK  229  A    between atoms: _549  and  _550
REMARK  230  A    between atoms: _549  and  _552
REMARK  231  A    between atoms: _552  and  _553
REMARK  232  A    between atoms: _556  and  _558
REMARK  233  A    between atoms: _558  and  _559
REMARK  234  A    between atoms: _558  and  _561
REMARK  235  A    between atoms: _561  and  _562
REMARK  236  A    between atoms: _565  and  _567
REMARK  237  A    between atoms: _567  and  _568
REMARK  238  A    between atoms: _567  and  _570
REMARK  239  A    between atoms: _570  and  _571
REMARK  240  A    between atoms: _571  and  _572
REMARK  241  A    between atoms: _574  and  _576
REMARK  242  A    between atoms: _576  and  _577
REMARK  243  A    between atoms: _576  and  _579
REMARK  244  A    between atoms: _579  and  _580
REMARK  245  A    between atoms: _582  and  _584
REMARK  246  A    between atoms: _584  and  _585
REMARK  247  A    between atoms: _584  and  _587
REMARK  248  A    between atoms: _587  and  _588
REMARK  249  A    between atoms: _591  and  _593
REMARK  250  A    between atoms: _593  and  _594
REMARK  251  A    between atoms: _593  and  _596
REMARK  252  A    between atoms: _596  and  _597
REMARK  253  A    between atoms: _602  and  _604
REMARK  254  A    between atoms: _604  and  _605
REMARK  255  A    between atoms: _604  and  _607
REMARK  256  A    between atoms: _607  and  _608
REMARK  257  A    between atoms: _611  and  _613
REMARK  258  A    between atoms: _613  and  _614
REMARK  259  A    between atoms: _613  and  _616
REMARK  260  A    between atoms: _616  and  _617
REMARK  261  A    between atoms: _620  and  _622
REMARK  262  A    between atoms: _622  and  _623
REMARK  263  A    between atoms: _622  and  _625
REMARK  264  A    between atoms: _625  and  _626
REMARK  265  A    between atoms: _626  and  _627
REMARK  266  A    between atoms: _632  and  _634
REMARK  267  A    between atoms: _634  and  _635
REMARK  268  A    between atoms: _634  and  _637
REMARK  269  A    between atoms: _637  and  _638
REMARK  270  A    between atoms: _641  and  _643
REMARK  271  A    between atoms: _643  and  _644
REMARK  272  A    between atoms: _643  and  _646
REMARK  273  A    between atoms: _646  and  _647
REMARK  274  A    between atoms: _652  and  _653
REMARK                            x       y       z     vdW  Elec       q    Type
REMARK                         _______ _______ _______ _____ _____    ______ ____
ROOT
ATOM      1  O   HOH     1       6.871  13.981  12.207  0.00  0.00    +0.000 OA
ENDROOT
TORSDOF 0
