REMARK  Name = ../refined-set-2016/1aid/1aid_pocket.pdb
REMARK  204 active torsions:
REMARK  status: ('A' for Active; 'I' for Inactive)
REMARK    1  A    between atoms: _1  and  _3
REMARK    2  A    between atoms: _3  and  _4
REMARK    3  A    between atoms: _3  and  _6
REMARK    4  A    between atoms: _6  and  _7
REMARK    5  A    between atoms: _10  and  _12
REMARK    6  A    between atoms: _12  and  _13
REMARK    7  A    between atoms: _15  and  _17
REMARK    8  A    between atoms: _17  and  _18
REMARK    9  A    between atoms: _21  and  _23
REMARK   10  A    between atoms: _23  and  _24
REMARK   11  A    between atoms: _23  and  _26
REMARK   12  A    between atoms: _26  and  _27
REMARK   13  A    between atoms: _30  and  _32
REMARK   14  A    between atoms: _32  and  _33
REMARK   15  A    between atoms: _32  and  _35
REMARK   16  A    between atoms: _35  and  _36
REMARK   17  A    between atoms: _39  and  _41
REMARK   18  A    between atoms: _41  and  _42
REMARK   19  A    between atoms: _41  and  _44
REMARK   20  A    between atoms: _44  and  _45
REMARK   21  A    between atoms: _48  and  _50
REMARK   22  A    between atoms: _50  and  _51
REMARK   23  A    between atoms: _50  and  _53
REMARK   24  A    between atoms: _56  and  _58
REMARK   25  A    between atoms: _58  and  _59
REMARK   26  A    between atoms: _58  and  _61
REMARK   27  A    between atoms: _61  and  _62
REMARK   28  A    between atoms: _65  and  _67
REMARK   29  A    between atoms: _67  and  _68
REMARK   30  A    between atoms: _67  and  _70
REMARK   31  A    between atoms: _70  and  _71
REMARK   32  A    between atoms: _71  and  _72
REMARK   33  A    between atoms: _72  and  _73
REMARK   34  A    between atoms: _73  and  _74
REMARK   35  A    between atoms: _78  and  _80
REMARK   36  A    between atoms: _80  and  _81
REMARK   37  A    between atoms: _80  and  _83
REMARK   38  A    between atoms: _83  and  _84
REMARK   39  A    between atoms: _84  and  _85
REMARK   40  A    between atoms: _87  and  _89
REMARK   41  A    between atoms: _89  and  _90
REMARK   42  A    between atoms: _89  and  _92
REMARK   43  A    between atoms: _92  and  _93
REMARK   44  A    between atoms: _96  and  _98
REMARK   45  A    between atoms: _98  and  _99
REMARK   46  A    between atoms: _101  and  _103
REMARK   47  A    between atoms: _103  and  _104
REMARK   48  A    between atoms: _106  and  _108
REMARK   49  A    between atoms: _108  and  _109
REMARK   50  A    between atoms: _108  and  _111
REMARK   51  A    between atoms: _111  and  _112
REMARK   52  A    between atoms: _115  and  _117
REMARK   53  A    between atoms: _117  and  _118
REMARK   54  A    between atoms: _120  and  _122
REMARK   55  A    between atoms: _122  and  _123
REMARK   56  A    between atoms: _125  and  _127
REMARK   57  A    between atoms: _127  and  _128
REMARK   58  A    between atoms: _127  and  _130
REMARK   59  A    between atoms: _130  and  _131
REMARK   60  A    between atoms: _137  and  _139
REMARK   61  A    between atoms: _139  and  _140
REMARK   62  A    between atoms: _139  and  _142
REMARK   63  A    between atoms: _142  and  _143
REMARK   64  A    between atoms: _146  and  _148
REMARK   65  A    between atoms: _148  and  _149
REMARK   66  A    between atoms: _148  and  _151
REMARK   67  A    between atoms: _154  and  _156
REMARK   68  A    between atoms: _156  and  _157
REMARK   69  A    between atoms: _156  and  _159
REMARK   70  A    between atoms: _159  and  _160
REMARK   71  A    between atoms: _163  and  _165
REMARK   72  A    between atoms: _165  and  _166
REMARK   73  A    between atoms: _169  and  _170
REMARK   74  A    between atoms: _175  and  _177
REMARK   75  A    between atoms: _177  and  _178
REMARK   76  A    between atoms: _177  and  _180
REMARK   77  A    between atoms: _180  and  _181
REMARK   78  A    between atoms: _185  and  _186
REMARK   79  A    between atoms: _191  and  _193
REMARK   80  A    between atoms: _193  and  _194
REMARK   81  A    between atoms: _193  and  _196
REMARK   82  A    between atoms: _199  and  _201
REMARK   83  A    between atoms: _201  and  _202
REMARK   84  A    between atoms: _201  and  _204
REMARK   85  A    between atoms: _204  and  _205
REMARK   86  A    between atoms: _210  and  _212
REMARK   87  A    between atoms: _212  and  _213
REMARK   88  A    between atoms: _212  and  _215
REMARK   89  A    between atoms: _215  and  _216
REMARK   90  A    between atoms: _219  and  _221
REMARK   91  A    between atoms: _221  and  _222
REMARK   92  A    between atoms: _221  and  _224
REMARK   93  A    between atoms: _224  and  _225
REMARK   94  A    between atoms: _228  and  _230
REMARK   95  A    between atoms: _230  and  _231
REMARK   96  A    between atoms: _233  and  _235
REMARK   97  A    between atoms: _235  and  _236
REMARK   98  A    between atoms: _235  and  _238
REMARK   99  A    between atoms: _238  and  _239
REMARK  100  A    between atoms: _239  and  _240
REMARK  101  A    between atoms: _240  and  _241
REMARK  102  A    between atoms: _250  and  _252
REMARK  103  A    between atoms: _252  and  _253
REMARK  104  A    between atoms: _252  and  _255
REMARK  105  A    between atoms: _255  and  _256
REMARK  106  A    between atoms: _256  and  _257
REMARK  107  A    between atoms: _257  and  _258
REMARK  108  A    between atoms: _267  and  _269
REMARK  109  A    between atoms: _269  and  _270
REMARK  110  A    between atoms: _269  and  _272
REMARK  111  A    between atoms: _272  and  _273
REMARK  112  A    between atoms: _276  and  _278
REMARK  113  A    between atoms: _278  and  _279
REMARK  114  A    between atoms: _281  and  _283
REMARK  115  A    between atoms: _283  and  _284
REMARK  116  A    between atoms: _287  and  _289
REMARK  117  A    between atoms: _289  and  _290
REMARK  118  A    between atoms: _289  and  _292
REMARK  119  A    between atoms: _292  and  _293
REMARK  120  A    between atoms: _296  and  _298
REMARK  121  A    between atoms: _298  and  _299
REMARK  122  A    between atoms: _298  and  _301
REMARK  123  A    between atoms: _301  and  _302
REMARK  124  A    between atoms: _305  and  _307
REMARK  125  A    between atoms: _307  and  _308
REMARK  126  A    between atoms: _307  and  _310
REMARK  127  A    between atoms: _313  and  _315
REMARK  128  A    between atoms: _315  and  _316
REMARK  129  A    between atoms: _315  and  _318
REMARK  130  A    between atoms: _318  and  _319
REMARK  131  A    between atoms: _322  and  _324
REMARK  132  A    between atoms: _324  and  _325
REMARK  133  A    between atoms: _324  and  _327
REMARK  134  A    between atoms: _327  and  _328
REMARK  135  A    between atoms: _328  and  _329
REMARK  136  A    between atoms: _332  and  _334
REMARK  137  A    between atoms: _334  and  _335
REMARK  138  A    between atoms: _334  and  _337
REMARK  139  A    between atoms: _337  and  _338
REMARK  140  A    between atoms: _338  and  _339
REMARK  141  A    between atoms: _341  and  _343
REMARK  142  A    between atoms: _343  and  _344
REMARK  143  A    between atoms: _343  and  _346
REMARK  144  A    between atoms: _346  and  _347
REMARK  145  A    between atoms: _350  and  _352
REMARK  146  A    between atoms: _352  and  _353
REMARK  147  A    between atoms: _355  and  _357
REMARK  148  A    between atoms: _357  and  _358
REMARK  149  A    between atoms: _360  and  _362
REMARK  150  A    between atoms: _362  and  _363
REMARK  151  A    between atoms: _362  and  _365
REMARK  152  A    between atoms: _365  and  _366
REMARK  153  A    between atoms: _369  and  _371
REMARK  154  A    between atoms: _371  and  _372
REMARK  155  A    between atoms: _374  and  _376
REMARK  156  A    between atoms: _376  and  _377
REMARK  157  A    between atoms: _376  and  _379
REMARK  158  A    between atoms: _379  and  _380
REMARK  159  A    between atoms: _386  and  _388
REMARK  160  A    between atoms: _388  and  _389
REMARK  161  A    between atoms: _388  and  _391
REMARK  162  A    between atoms: _391  and  _392
REMARK  163  A    between atoms: _395  and  _397
REMARK  164  A    between atoms: _397  and  _398
REMARK  165  A    between atoms: _397  and  _400
REMARK  166  A    between atoms: _400  and  _401
REMARK  167  A    between atoms: _401  and  _402
REMARK  168  A    between atoms: _402  and  _403
REMARK  169  A    between atoms: _403  and  _404
REMARK  170  A    between atoms: _408  and  _410
REMARK  171  A    between atoms: _410  and  _411
REMARK  172  A    between atoms: _410  and  _413
REMARK  173  A    between atoms: _416  and  _418
REMARK  174  A    between atoms: _418  and  _419
REMARK  175  A    between atoms: _418  and  _421
REMARK  176  A    between atoms: _421  and  _422
REMARK  177  A    between atoms: _422  and  _423
REMARK  178  A    between atoms: _423  and  _424
REMARK  179  A    between atoms: _433  and  _435
REMARK  180  A    between atoms: _435  and  _436
REMARK  181  A    between atoms: _435  and  _438
REMARK  182  A    between atoms: _438  and  _439
REMARK  183  A    between atoms: _442  and  _444
REMARK  184  A    between atoms: _444  and  _445
REMARK  185  A    between atoms: _444  and  _447
REMARK  186  A    between atoms: _450  and  _452
REMARK  187  A    between atoms: _452  and  _453
REMARK  188  A    between atoms: _456  and  _457
REMARK  189  A    between atoms: _462  and  _464
REMARK  190  A    between atoms: _464  and  _465
REMARK  191  A    between atoms: _464  and  _467
REMARK  192  A    between atoms: _467  and  _468
REMARK  193  A    between atoms: _472  and  _473
REMARK  194  A    between atoms: _478  and  _480
REMARK  195  A    between atoms: _480  and  _481
REMARK  196  A    between atoms: _480  and  _483
REMARK  197  A    between atoms: _486  and  _488
REMARK  198  A    between atoms: _488  and  _489
REMARK  199  A    between atoms: _488  and  _491
REMARK  200  A    between atoms: _491  and  _492
REMARK  201  A    between atoms: _497  and  _499
REMARK  202  A    between atoms: _499  and  _500
REMARK  203  A    between atoms: _499  and  _502
REMARK  204  A    between atoms: _502  and  _503
REMARK                            x       y       z     vdW  Elec       q    Type
REMARK                         _______ _______ _______ _____ _____    ______ ____
ROOT
ATOM      1  CA  ASP A   1      71.087  46.594  -3.286  0.00  0.00    +0.144 C 
ENDROOT
BRANCH   1   2
ATOM      2  N   ASP A   1      71.250  47.419  -4.442  0.00  0.00    -0.239 NA
ATOM      3  H   ASP A   1      71.581  46.997  -5.333  0.00  0.00    +0.142 HD
ENDBRANCH   1   2
BRANCH   1   4
ATOM      4  C   ASP A   1      72.316  45.852  -2.847  0.00  0.00    +0.225 C 
ATOM      5  O   ASP A   1      72.575  44.762  -3.338  0.00  0.00    -0.287 OA
ENDBRANCH   1   4
BRANCH   1   6
ATOM      6  CB  ASP A   1      69.947  45.677  -3.637  0.00  0.00    +0.139 C 
BRANCH   6   7
ATOM      7  CG  ASP A   1      69.383  44.820  -2.527  0.00  0.00    +0.367 C 
ATOM      8  OD2 ASP A   1      69.973  44.658  -1.458  0.00  0.00    -0.246 OA
ATOM      9  OD1 ASP A   1      68.309  44.290  -2.755  0.00  0.00    -0.246 OA
ENDBRANCH   6   7
ENDBRANCH   1   6
TORSDOF 4
REMARK  Name = ../refined-set-2016/1aid/1aid_pocket.pdb
REMARK  204 active torsions:
REMARK  status: ('A' for Active; 'I' for Inactive)
REMARK    1  A    between atoms: _1  and  _3
REMARK    2  A    between atoms: _3  and  _4
REMARK    3  A    between atoms: _3  and  _6
REMARK    4  A    between atoms: _6  and  _7
REMARK    5  A    between atoms: _10  and  _12
REMARK    6  A    between atoms: _12  and  _13
REMARK    7  A    between atoms: _15  and  _17
REMARK    8  A    between atoms: _17  and  _18
REMARK    9  A    between atoms: _21  and  _23
REMARK   10  A    between atoms: _23  and  _24
REMARK   11  A    between atoms: _23  and  _26
REMARK   12  A    between atoms: _26  and  _27
REMARK   13  A    between atoms: _30  and  _32
REMARK   14  A    between atoms: _32  and  _33
REMARK   15  A    between atoms: _32  and  _35
REMARK   16  A    between atoms: _35  and  _36
REMARK   17  A    between atoms: _39  and  _41
REMARK   18  A    between atoms: _41  and  _42
REMARK   19  A    between atoms: _41  and  _44
REMARK   20  A    between atoms: _44  and  _45
REMARK   21  A    between atoms: _48  and  _50
REMARK   22  A    between atoms: _50  and  _51
REMARK   23  A    between atoms: _50  and  _53
REMARK   24  A    between atoms: _56  and  _58
REMARK   25  A    between atoms: _58  and  _59
REMARK   26  A    between atoms: _58  and  _61
REMARK   27  A    between atoms: _61  and  _62
REMARK   28  A    between atoms: _65  and  _67
REMARK   29  A    between atoms: _67  and  _68
REMARK   30  A    between atoms: _67  and  _70
REMARK   31  A    between atoms: _70  and  _71
REMARK   32  A    between atoms: _71  and  _72
REMARK   33  A    between atoms: _72  and  _73
REMARK   34  A    between atoms: _73  and  _74
REMARK   35  A    between atoms: _78  and  _80
REMARK   36  A    between atoms: _80  and  _81
REMARK   37  A    between atoms: _80  and  _83
REMARK   38  A    between atoms: _83  and  _84
REMARK   39  A    between atoms: _84  and  _85
REMARK   40  A    between atoms: _87  and  _89
REMARK   41  A    between atoms: _89  and  _90
REMARK   42  A    between atoms: _89  and  _92
REMARK   43  A    between atoms: _92  and  _93
REMARK   44  A    between atoms: _96  and  _98
REMARK   45  A    between atoms: _98  and  _99
REMARK   46  A    between atoms: _101  and  _103
REMARK   47  A    between atoms: _103  and  _104
REMARK   48  A    between atoms: _106  and  _108
REMARK   49  A    between atoms: _108  and  _109
REMARK   50  A    between atoms: _108  and  _111
REMARK   51  A    between atoms: _111  and  _112
REMARK   52  A    between atoms: _115  and  _117
REMARK   53  A    between atoms: _117  and  _118
REMARK   54  A    between atoms: _120  and  _122
REMARK   55  A    between atoms: _122  and  _123
REMARK   56  A    between atoms: _125  and  _127
REMARK   57  A    between atoms: _127  and  _128
REMARK   58  A    between atoms: _127  and  _130
REMARK   59  A    between atoms: _130  and  _131
REMARK   60  A    between atoms: _137  and  _139
REMARK   61  A    between atoms: _139  and  _140
REMARK   62  A    between atoms: _139  and  _142
REMARK   63  A    between atoms: _142  and  _143
REMARK   64  A    between atoms: _146  and  _148
REMARK   65  A    between atoms: _148  and  _149
REMARK   66  A    between atoms: _148  and  _151
REMARK   67  A    between atoms: _154  and  _156
REMARK   68  A    between atoms: _156  and  _157
REMARK   69  A    between atoms: _156  and  _159
REMARK   70  A    between atoms: _159  and  _160
REMARK   71  A    between atoms: _163  and  _165
REMARK   72  A    between atoms: _165  and  _166
REMARK   73  A    between atoms: _169  and  _170
REMARK   74  A    between atoms: _175  and  _177
REMARK   75  A    between atoms: _177  and  _178
REMARK   76  A    between atoms: _177  and  _180
REMARK   77  A    between atoms: _180  and  _181
REMARK   78  A    between atoms: _185  and  _186
REMARK   79  A    between atoms: _191  and  _193
REMARK   80  A    between atoms: _193  and  _194
REMARK   81  A    between atoms: _193  and  _196
REMARK   82  A    between atoms: _199  and  _201
REMARK   83  A    between atoms: _201  and  _202
REMARK   84  A    between atoms: _201  and  _204
REMARK   85  A    between atoms: _204  and  _205
REMARK   86  A    between atoms: _210  and  _212
REMARK   87  A    between atoms: _212  and  _213
REMARK   88  A    between atoms: _212  and  _215
REMARK   89  A    between atoms: _215  and  _216
REMARK   90  A    between atoms: _219  and  _221
REMARK   91  A    between atoms: _221  and  _222
REMARK   92  A    between atoms: _221  and  _224
REMARK   93  A    between atoms: _224  and  _225
REMARK   94  A    between atoms: _228  and  _230
REMARK   95  A    between atoms: _230  and  _231
REMARK   96  A    between atoms: _233  and  _235
REMARK   97  A    between atoms: _235  and  _236
REMARK   98  A    between atoms: _235  and  _238
REMARK   99  A    between atoms: _238  and  _239
REMARK  100  A    between atoms: _239  and  _240
REMARK  101  A    between atoms: _240  and  _241
REMARK  102  A    between atoms: _250  and  _252
REMARK  103  A    between atoms: _252  and  _253
REMARK  104  A    between atoms: _252  and  _255
REMARK  105  A    between atoms: _255  and  _256
REMARK  106  A    between atoms: _256  and  _257
REMARK  107  A    between atoms: _257  and  _258
REMARK  108  A    between atoms: _267  and  _269
REMARK  109  A    between atoms: _269  and  _270
REMARK  110  A    between atoms: _269  and  _272
REMARK  111  A    between atoms: _272  and  _273
REMARK  112  A    between atoms: _276  and  _278
REMARK  113  A    between atoms: _278  and  _279
REMARK  114  A    between atoms: _281  and  _283
REMARK  115  A    between atoms: _283  and  _284
REMARK  116  A    between atoms: _287  and  _289
REMARK  117  A    between atoms: _289  and  _290
REMARK  118  A    between atoms: _289  and  _292
REMARK  119  A    between atoms: _292  and  _293
REMARK  120  A    between atoms: _296  and  _298
REMARK  121  A    between atoms: _298  and  _299
REMARK  122  A    between atoms: _298  and  _301
REMARK  123  A    between atoms: _301  and  _302
REMARK  124  A    between atoms: _305  and  _307
REMARK  125  A    between atoms: _307  and  _308
REMARK  126  A    between atoms: _307  and  _310
REMARK  127  A    between atoms: _313  and  _315
REMARK  128  A    between atoms: _315  and  _316
REMARK  129  A    between atoms: _315  and  _318
REMARK  130  A    between atoms: _318  and  _319
REMARK  131  A    between atoms: _322  and  _324
REMARK  132  A    between atoms: _324  and  _325
REMARK  133  A    between atoms: _324  and  _327
REMARK  134  A    between atoms: _327  and  _328
REMARK  135  A    between atoms: _328  and  _329
REMARK  136  A    between atoms: _332  and  _334
REMARK  137  A    between atoms: _334  and  _335
REMARK  138  A    between atoms: _334  and  _337
REMARK  139  A    between atoms: _337  and  _338
REMARK  140  A    between atoms: _338  and  _339
REMARK  141  A    between atoms: _341  and  _343
REMARK  142  A    between atoms: _343  and  _344
REMARK  143  A    between atoms: _343  and  _346
REMARK  144  A    between atoms: _346  and  _347
REMARK  145  A    between atoms: _350  and  _352
REMARK  146  A    between atoms: _352  and  _353
REMARK  147  A    between atoms: _355  and  _357
REMARK  148  A    between atoms: _357  and  _358
REMARK  149  A    between atoms: _360  and  _362
REMARK  150  A    between atoms: _362  and  _363
REMARK  151  A    between atoms: _362  and  _365
REMARK  152  A    between atoms: _365  and  _366
REMARK  153  A    between atoms: _369  and  _371
REMARK  154  A    between atoms: _371  and  _372
REMARK  155  A    between atoms: _374  and  _376
REMARK  156  A    between atoms: _376  and  _377
REMARK  157  A    between atoms: _376  and  _379
REMARK  158  A    between atoms: _379  and  _380
REMARK  159  A    between atoms: _386  and  _388
REMARK  160  A    between atoms: _388  and  _389
REMARK  161  A    between atoms: _388  and  _391
REMARK  162  A    between atoms: _391  and  _392
REMARK  163  A    between atoms: _395  and  _397
REMARK  164  A    between atoms: _397  and  _398
REMARK  165  A    between atoms: _397  and  _400
REMARK  166  A    between atoms: _400  and  _401
REMARK  167  A    between atoms: _401  and  _402
REMARK  168  A    between atoms: _402  and  _403
REMARK  169  A    between atoms: _403  and  _404
REMARK  170  A    between atoms: _408  and  _410
REMARK  171  A    between atoms: _410  and  _411
REMARK  172  A    between atoms: _410  and  _413
REMARK  173  A    between atoms: _416  and  _418
REMARK  174  A    between atoms: _418  and  _419
REMARK  175  A    between atoms: _418  and  _421
REMARK  176  A    between atoms: _421  and  _422
REMARK  177  A    between atoms: _422  and  _423
REMARK  178  A    between atoms: _423  and  _424
REMARK  179  A    between atoms: _433  and  _435
REMARK  180  A    between atoms: _435  and  _436
REMARK  181  A    between atoms: _435  and  _438
REMARK  182  A    between atoms: _438  and  _439
REMARK  183  A    between atoms: _442  and  _444
REMARK  184  A    between atoms: _444  and  _445
REMARK  185  A    between atoms: _444  and  _447
REMARK  186  A    between atoms: _450  and  _452
REMARK  187  A    between atoms: _452  and  _453
REMARK  188  A    between atoms: _456  and  _457
REMARK  189  A    between atoms: _462  and  _464
REMARK  190  A    between atoms: _464  and  _465
REMARK  191  A    between atoms: _464  and  _467
REMARK  192  A    between atoms: _467  and  _468
REMARK  193  A    between atoms: _472  and  _473
REMARK  194  A    between atoms: _478  and  _480
REMARK  195  A    between atoms: _480  and  _481
REMARK  196  A    between atoms: _480  and  _483
REMARK  197  A    between atoms: _486  and  _488
REMARK  198  A    between atoms: _488  and  _489
REMARK  199  A    between atoms: _488  and  _491
REMARK  200  A    between atoms: _491  and  _492
REMARK  201  A    between atoms: _497  and  _499
REMARK  202  A    between atoms: _499  and  _500
REMARK  203  A    between atoms: _499  and  _502
REMARK  204  A    between atoms: _502  and  _503
REMARK                            x       y       z     vdW  Elec       q    Type
REMARK                         _______ _______ _______ _____ _____    ______ ____
ROOT
ATOM      1  C   ASP A   4      71.759  39.725  -8.362  0.00  0.00    +0.241 C 
ATOM      2  O   ASP A   4      71.047  40.257  -7.518  0.00  0.00    -0.273 OA
ATOM      3  N   THR A   5      71.768  40.101  -9.639  0.00  0.00    -0.295 N 
ATOM      4  H   THR A   5      72.412  39.597 -10.282  0.00  0.00    +0.150 HD
ENDROOT
BRANCH   3   5
ATOM      5  CA  THR A   5      70.952  41.156 -10.203  0.00  0.00    +0.176 C 
BRANCH   5   6
ATOM      6  C   THR A   5      69.691  40.497 -10.749  0.00  0.00    +0.243 C 
ATOM      7  N   VAL A   6      68.531  41.087 -10.462  0.00  0.00    -0.297 N 
ATOM      8  H   VAL A   6      68.541  41.996  -9.957  0.00  0.00    +0.150 HD
ATOM      9  O   THR A   5      69.753  39.473 -11.447  0.00  0.00    -0.273 OA
BRANCH   7  10
ATOM     10  CA  VAL A   6      67.246  40.501 -10.833  0.00  0.00    +0.149 C 
BRANCH  10  11
ATOM     11  C   VAL A   6      66.455  41.606 -11.508  0.00  0.00    +0.241 C 
ATOM     12  O   VAL A   6      66.250  42.674 -10.915  0.00  0.00    -0.273 OA
ATOM     13  N   LEU A   7      66.035  41.397 -12.759  0.00  0.00    -0.298 N 
ATOM     14  H   LEU A   7      66.222  40.473 -13.198  0.00  0.00    +0.150 HD
BRANCH  13  15
ATOM     15  CA  LEU A   7      65.328  42.405 -13.536  0.00  0.00    +0.137 C 
BRANCH  15  16
ATOM     16  C   LEU A   7      64.019  41.861 -14.079  0.00  0.00    +0.227 C 
ATOM     17  O   LEU A   7      63.842  40.647 -14.287  0.00  0.00    -0.286 OA
ENDBRANCH  15  16
BRANCH  15  18
ATOM     18  CB  LEU A   7      66.186  42.860 -14.693  0.00  0.00    +0.028 C 
BRANCH  18  19
ATOM     19  CG  LEU A   7      67.573  43.360 -14.346  0.00  0.00    +0.002 C 
ATOM     20  CD2 LEU A   7      67.510  44.604 -13.480  0.00  0.00    +0.000 C 
ATOM     21  CD1 LEU A   7      68.293  43.642 -15.626  0.00  0.00    +0.000 C 
ENDBRANCH  18  19
ENDBRANCH  15  18
ENDBRANCH  13  15
ENDBRANCH  10  11
BRANCH  10  22
ATOM     22  CB  VAL A   6      66.429  40.001  -9.602  0.00  0.00    +0.027 C 
ATOM     23  CG2 VAL A   6      67.282  39.663  -8.391  0.00  0.00    +0.002 C 
ATOM     24  CG1 VAL A   6      65.701  38.752 -10.050  0.00  0.00    +0.002 C 
ENDBRANCH  10  22
ENDBRANCH   7  10
ENDBRANCH   5   6
BRANCH   5  25
ATOM     25  CB  THR A   5      71.754  41.839 -11.304  0.00  0.00    +0.137 C 
ATOM     26  CG2 THR A   5      70.964  42.843 -12.117  0.00  0.00    +0.034 C 
BRANCH  25  27
ATOM     27  OG1 THR A   5      72.842  42.468 -10.628  0.00  0.00    -0.382 OA
ATOM     28  HG1 THR A   5      73.377  41.782 -10.156  0.00  0.00    +0.210 HD
ENDBRANCH  25  27
ENDBRANCH   5  25
ENDBRANCH   3   5
BRANCH   1  29
ATOM     29  CA  ASP A   4      72.634  38.563  -7.935  0.00  0.00    +0.160 C 
BRANCH  29  31
ATOM     30  C   ASP A   3      74.207  38.718  -6.043  0.00  0.00    +0.241 C 
ATOM     31  N   ASP A   4      72.962  38.649  -6.519  0.00  0.00    -0.297 N 
ATOM     32  H   ASP A   4      72.178  38.657  -5.836  0.00  0.00    +0.150 HD
ATOM     33  O   ASP A   3      75.187  38.946  -6.752  0.00  0.00    -0.273 OA
BRANCH  30  34
ATOM     34  CA  ASP A   3      74.362  38.594  -4.534  0.00  0.00    +0.160 C 
BRANCH  34  36
ATOM     35  C   ALA A   2      73.072  40.488  -3.740  0.00  0.00    +0.241 C 
ATOM     36  N   ASP A   3      73.213  39.182  -3.879  0.00  0.00    -0.297 N 
ATOM     37  H   ASP A   3      72.473  38.555  -3.505  0.00  0.00    +0.150 HD
ATOM     38  O   ALA A   2      73.968  41.267  -4.060  0.00  0.00    -0.273 OA
BRANCH  35  39
ATOM     39  CA  ALA A   2      71.769  40.968  -3.120  0.00  0.00    +0.149 C 
ATOM     40  CB  ALA A   2      70.933  41.598  -4.250  0.00  0.00    +0.031 C 
BRANCH  39  43
ATOM     41  C   GLY A   1      71.913  41.654  -0.768  0.00  0.00    +0.240 C 
ATOM     42  O   GLY A   1      71.452  40.581  -0.376  0.00  0.00    -0.274 OA
ATOM     43  N   ALA A   2      72.075  41.922  -2.071  0.00  0.00    -0.297 N 
ATOM     44  H   ALA A   2      72.437  42.858  -2.343  0.00  0.00    +0.150 HD
BRANCH  41  45
ATOM     45  CA  GLY A   1      72.267  42.698   0.280  0.00  0.00    +0.169 C 
BRANCH  45  46
ATOM     46  N   GLY A   1      72.615  43.986  -0.300  0.00  0.00    -0.236 NA
ATOM     47  H   GLY A   1      71.868  44.689  -0.471  0.00  0.00    +0.142 HD
ENDBRANCH  45  46
ENDBRANCH  41  45
ENDBRANCH  39  43
ENDBRANCH  35  39
ENDBRANCH  34  36
BRANCH  34  48
ATOM     48  CB  ASP A   3      74.472  37.127  -4.187  0.00  0.00    +0.143 C 
BRANCH  48  49
ATOM     49  CG  ASP A   3      74.518  36.795  -2.700  0.00  0.00    +0.367 C 
ATOM     50  OD2 ASP A   3      75.403  37.278  -2.001  0.00  0.00    -0.246 OA
ATOM     51  OD1 ASP A   3      73.669  36.034  -2.235  0.00  0.00    -0.246 OA
ENDBRANCH  48  49
ENDBRANCH  34  48
ENDBRANCH  30  34
ENDBRANCH  29  31
BRANCH  29  52
ATOM     52  CB  ASP A   4      71.847  37.292  -8.241  0.00  0.00    +0.143 C 
BRANCH  52  53
ATOM     53  CG  ASP A   4      72.307  36.027  -7.529  0.00  0.00    +0.367 C 
ATOM     54  OD2 ASP A   4      71.503  35.477  -6.771  0.00  0.00    -0.246 OA
ATOM     55  OD1 ASP A   4      73.450  35.600  -7.728  0.00  0.00    -0.246 OA
ENDBRANCH  52  53
ENDBRANCH  29  52
ENDBRANCH   1  29
TORSDOF 23
REMARK  Name = ../refined-set-2016/1aid/1aid_pocket.pdb
REMARK  204 active torsions:
REMARK  status: ('A' for Active; 'I' for Inactive)
REMARK    1  A    between atoms: _1  and  _3
REMARK    2  A    between atoms: _3  and  _4
REMARK    3  A    between atoms: _3  and  _6
REMARK    4  A    between atoms: _6  and  _7
REMARK    5  A    between atoms: _10  and  _12
REMARK    6  A    between atoms: _12  and  _13
REMARK    7  A    between atoms: _15  and  _17
REMARK    8  A    between atoms: _17  and  _18
REMARK    9  A    between atoms: _21  and  _23
REMARK   10  A    between atoms: _23  and  _24
REMARK   11  A    between atoms: _23  and  _26
REMARK   12  A    between atoms: _26  and  _27
REMARK   13  A    between atoms: _30  and  _32
REMARK   14  A    between atoms: _32  and  _33
REMARK   15  A    between atoms: _32  and  _35
REMARK   16  A    between atoms: _35  and  _36
REMARK   17  A    between atoms: _39  and  _41
REMARK   18  A    between atoms: _41  and  _42
REMARK   19  A    between atoms: _41  and  _44
REMARK   20  A    between atoms: _44  and  _45
REMARK   21  A    between atoms: _48  and  _50
REMARK   22  A    between atoms: _50  and  _51
REMARK   23  A    between atoms: _50  and  _53
REMARK   24  A    between atoms: _56  and  _58
REMARK   25  A    between atoms: _58  and  _59
REMARK   26  A    between atoms: _58  and  _61
REMARK   27  A    between atoms: _61  and  _62
REMARK   28  A    between atoms: _65  and  _67
REMARK   29  A    between atoms: _67  and  _68
REMARK   30  A    between atoms: _67  and  _70
REMARK   31  A    between atoms: _70  and  _71
REMARK   32  A    between atoms: _71  and  _72
REMARK   33  A    between atoms: _72  and  _73
REMARK   34  A    between atoms: _73  and  _74
REMARK   35  A    between atoms: _78  and  _80
REMARK   36  A    between atoms: _80  and  _81
REMARK   37  A    between atoms: _80  and  _83
REMARK   38  A    between atoms: _83  and  _84
REMARK   39  A    between atoms: _84  and  _85
REMARK   40  A    between atoms: _87  and  _89
REMARK   41  A    between atoms: _89  and  _90
REMARK   42  A    between atoms: _89  and  _92
REMARK   43  A    between atoms: _92  and  _93
REMARK   44  A    between atoms: _96  and  _98
REMARK   45  A    between atoms: _98  and  _99
REMARK   46  A    between atoms: _101  and  _103
REMARK   47  A    between atoms: _103  and  _104
REMARK   48  A    between atoms: _106  and  _108
REMARK   49  A    between atoms: _108  and  _109
REMARK   50  A    between atoms: _108  and  _111
REMARK   51  A    between atoms: _111  and  _112
REMARK   52  A    between atoms: _115  and  _117
REMARK   53  A    between atoms: _117  and  _118
REMARK   54  A    between atoms: _120  and  _122
REMARK   55  A    between atoms: _122  and  _123
REMARK   56  A    between atoms: _125  and  _127
REMARK   57  A    between atoms: _127  and  _128
REMARK   58  A    between atoms: _127  and  _130
REMARK   59  A    between atoms: _130  and  _131
REMARK   60  A    between atoms: _137  and  _139
REMARK   61  A    between atoms: _139  and  _140
REMARK   62  A    between atoms: _139  and  _142
REMARK   63  A    between atoms: _142  and  _143
REMARK   64  A    between atoms: _146  and  _148
REMARK   65  A    between atoms: _148  and  _149
REMARK   66  A    between atoms: _148  and  _151
REMARK   67  A    between atoms: _154  and  _156
REMARK   68  A    between atoms: _156  and  _157
REMARK   69  A    between atoms: _156  and  _159
REMARK   70  A    between atoms: _159  and  _160
REMARK   71  A    between atoms: _163  and  _165
REMARK   72  A    between atoms: _165  and  _166
REMARK   73  A    between atoms: _169  and  _170
REMARK   74  A    between atoms: _175  and  _177
REMARK   75  A    between atoms: _177  and  _178
REMARK   76  A    between atoms: _177  and  _180
REMARK   77  A    between atoms: _180  and  _181
REMARK   78  A    between atoms: _185  and  _186
REMARK   79  A    between atoms: _191  and  _193
REMARK   80  A    between atoms: _193  and  _194
REMARK   81  A    between atoms: _193  and  _196
REMARK   82  A    between atoms: _199  and  _201
REMARK   83  A    between atoms: _201  and  _202
REMARK   84  A    between atoms: _201  and  _204
REMARK   85  A    between atoms: _204  and  _205
REMARK   86  A    between atoms: _210  and  _212
REMARK   87  A    between atoms: _212  and  _213
REMARK   88  A    between atoms: _212  and  _215
REMARK   89  A    between atoms: _215  and  _216
REMARK   90  A    between atoms: _219  and  _221
REMARK   91  A    between atoms: _221  and  _222
REMARK   92  A    between atoms: _221  and  _224
REMARK   93  A    between atoms: _224  and  _225
REMARK   94  A    between atoms: _228  and  _230
REMARK   95  A    between atoms: _230  and  _231
REMARK   96  A    between atoms: _233  and  _235
REMARK   97  A    between atoms: _235  and  _236
REMARK   98  A    between atoms: _235  and  _238
REMARK   99  A    between atoms: _238  and  _239
REMARK  100  A    between atoms: _239  and  _240
REMARK  101  A    between atoms: _240  and  _241
REMARK  102  A    between atoms: _250  and  _252
REMARK  103  A    between atoms: _252  and  _253
REMARK  104  A    between atoms: _252  and  _255
REMARK  105  A    between atoms: _255  and  _256
REMARK  106  A    between atoms: _256  and  _257
REMARK  107  A    between atoms: _257  and  _258
REMARK  108  A    between atoms: _267  and  _269
REMARK  109  A    between atoms: _269  and  _270
REMARK  110  A    between atoms: _269  and  _272
REMARK  111  A    between atoms: _272  and  _273
REMARK  112  A    between atoms: _276  and  _278
REMARK  113  A    between atoms: _278  and  _279
REMARK  114  A    between atoms: _281  and  _283
REMARK  115  A    between atoms: _283  and  _284
REMARK  116  A    between atoms: _287  and  _289
REMARK  117  A    between atoms: _289  and  _290
REMARK  118  A    between atoms: _289  and  _292
REMARK  119  A    between atoms: _292  and  _293
REMARK  120  A    between atoms: _296  and  _298
REMARK  121  A    between atoms: _298  and  _299
REMARK  122  A    between atoms: _298  and  _301
REMARK  123  A    between atoms: _301  and  _302
REMARK  124  A    between atoms: _305  and  _307
REMARK  125  A    between atoms: _307  and  _308
REMARK  126  A    between atoms: _307  and  _310
REMARK  127  A    between atoms: _313  and  _315
REMARK  128  A    between atoms: _315  and  _316
REMARK  129  A    between atoms: _315  and  _318
REMARK  130  A    between atoms: _318  and  _319
REMARK  131  A    between atoms: _322  and  _324
REMARK  132  A    between atoms: _324  and  _325
REMARK  133  A    between atoms: _324  and  _327
REMARK  134  A    between atoms: _327  and  _328
REMARK  135  A    between atoms: _328  and  _329
REMARK  136  A    between atoms: _332  and  _334
REMARK  137  A    between atoms: _334  and  _335
REMARK  138  A    between atoms: _334  and  _337
REMARK  139  A    between atoms: _337  and  _338
REMARK  140  A    between atoms: _338  and  _339
REMARK  141  A    between atoms: _341  and  _343
REMARK  142  A    between atoms: _343  and  _344
REMARK  143  A    between atoms: _343  and  _346
REMARK  144  A    between atoms: _346  and  _347
REMARK  145  A    between atoms: _350  and  _352
REMARK  146  A    between atoms: _352  and  _353
REMARK  147  A    between atoms: _355  and  _357
REMARK  148  A    between atoms: _357  and  _358
REMARK  149  A    between atoms: _360  and  _362
REMARK  150  A    between atoms: _362  and  _363
REMARK  151  A    between atoms: _362  and  _365
REMARK  152  A    between atoms: _365  and  _366
REMARK  153  A    between atoms: _369  and  _371
REMARK  154  A    between atoms: _371  and  _372
REMARK  155  A    between atoms: _374  and  _376
REMARK  156  A    between atoms: _376  and  _377
REMARK  157  A    between atoms: _376  and  _379
REMARK  158  A    between atoms: _379  and  _380
REMARK  159  A    between atoms: _386  and  _388
REMARK  160  A    between atoms: _388  and  _389
REMARK  161  A    between atoms: _388  and  _391
REMARK  162  A    between atoms: _391  and  _392
REMARK  163  A    between atoms: _395  and  _397
REMARK  164  A    between atoms: _397  and  _398
REMARK  165  A    between atoms: _397  and  _400
REMARK  166  A    between atoms: _400  and  _401
REMARK  167  A    between atoms: _401  and  _402
REMARK  168  A    between atoms: _402  and  _403
REMARK  169  A    between atoms: _403  and  _404
REMARK  170  A    between atoms: _408  and  _410
REMARK  171  A    between atoms: _410  and  _411
REMARK  172  A    between atoms: _410  and  _413
REMARK  173  A    between atoms: _416  and  _418
REMARK  174  A    between atoms: _418  and  _419
REMARK  175  A    between atoms: _418  and  _421
REMARK  176  A    between atoms: _421  and  _422
REMARK  177  A    between atoms: _422  and  _423
REMARK  178  A    between atoms: _423  and  _424
REMARK  179  A    between atoms: _433  and  _435
REMARK  180  A    between atoms: _435  and  _436
REMARK  181  A    between atoms: _435  and  _438
REMARK  182  A    between atoms: _438  and  _439
REMARK  183  A    between atoms: _442  and  _444
REMARK  184  A    between atoms: _444  and  _445
REMARK  185  A    between atoms: _444  and  _447
REMARK  186  A    between atoms: _450  and  _452
REMARK  187  A    between atoms: _452  and  _453
REMARK  188  A    between atoms: _456  and  _457
REMARK  189  A    between atoms: _462  and  _464
REMARK  190  A    between atoms: _464  and  _465
REMARK  191  A    between atoms: _464  and  _467
REMARK  192  A    between atoms: _467  and  _468
REMARK  193  A    between atoms: _472  and  _473
REMARK  194  A    between atoms: _478  and  _480
REMARK  195  A    between atoms: _480  and  _481
REMARK  196  A    between atoms: _480  and  _483
REMARK  197  A    between atoms: _486  and  _488
REMARK  198  A    between atoms: _488  and  _489
REMARK  199  A    between atoms: _488  and  _491
REMARK  200  A    between atoms: _491  and  _492
REMARK  201  A    between atoms: _497  and  _499
REMARK  202  A    between atoms: _499  and  _500
REMARK  203  A    between atoms: _499  and  _502
REMARK  204  A    between atoms: _502  and  _503
REMARK                            x       y       z     vdW  Elec       q    Type
REMARK                         _______ _______ _______ _____ _____    ______ ____
ROOT
ATOM      1  C   GLY A   5      61.889  32.208   0.344  0.00  0.00    +0.243 C 
ATOM      2  N   ILE A   6      61.223  33.027   1.145  0.00  0.00    -0.297 N 
ATOM      3  H   ILE A   6      61.208  34.037   0.896  0.00  0.00    +0.150 HD
ATOM      4  O   GLY A   5      61.830  30.973   0.350  0.00  0.00    -0.273 OA
ENDROOT
BRANCH   2   5
ATOM      5  CA  ILE A   6      60.517  32.622   2.338  0.00  0.00    +0.149 C 
BRANCH   5   6
ATOM      6  C   ILE A   6      59.573  31.421   2.235  0.00  0.00    +0.241 C 
ATOM      7  O   ILE A   6      59.636  30.554   3.105  0.00  0.00    -0.273 OA
ATOM      8  N   GLY A   7      58.725  31.277   1.225  0.00  0.00    -0.295 N 
ATOM      9  H   GLY A   7      58.700  31.985   0.464  0.00  0.00    +0.150 HD
BRANCH   8  10
ATOM     10  CA  GLY A   7      57.832  30.134   1.180  0.00  0.00    +0.176 C 
BRANCH  10  11
ATOM     11  C   GLY A   7      57.870  29.467  -0.179  0.00  0.00    +0.243 C 
ATOM     12  O   GLY A   7      56.868  28.894  -0.620  0.00  0.00    -0.273 OA
ATOM     13  N   GLY A   8      59.010  29.536  -0.865  0.00  0.00    -0.295 N 
ATOM     14  H   GLY A   8      59.826  30.043  -0.467  0.00  0.00    +0.150 HD
BRANCH  13  15
ATOM     15  CA  GLY A   8      59.114  28.908  -2.160  0.00  0.00    +0.176 C 
BRANCH  15  16
ATOM     16  C   GLY A   8      60.222  29.453  -3.039  0.00  0.00    +0.243 C 
ATOM     17  O   GLY A   8      61.129  30.189  -2.629  0.00  0.00    -0.273 OA
ATOM     18  N   PHE A   9      60.033  29.097  -4.306  0.00  0.00    -0.297 N 
ATOM     19  H   PHE A   9      59.146  28.609  -4.545  0.00  0.00    +0.150 HD
BRANCH  18  20
ATOM     20  CA  PHE A   9      60.976  29.342  -5.375  0.00  0.00    +0.153 C 
BRANCH  20  21
ATOM     21  C   PHE A   9      60.332  30.051  -6.569  0.00  0.00    +0.241 C 
ATOM     22  O   PHE A   9      59.122  29.936  -6.829  0.00  0.00    -0.273 OA
ATOM     23  N   ILE A  10      61.133  30.786  -7.331  0.00  0.00    -0.298 N 
ATOM     24  H   ILE A  10      62.136  30.858  -7.065  0.00  0.00    +0.150 HD
BRANCH  23  25
ATOM     25  CA  ILE A  10      60.687  31.493  -8.512  0.00  0.00    +0.137 C 
BRANCH  25  26
ATOM     26  C   ILE A  10      61.641  31.054  -9.606  0.00  0.00    +0.227 C 
ATOM     27  O   ILE A  10      62.841  30.957  -9.366  0.00  0.00    -0.286 OA
ENDBRANCH  25  26
BRANCH  25  28
ATOM     28  CB  ILE A  10      60.766  33.015  -8.277  0.00  0.00    +0.026 C 
ATOM     29  CG2 ILE A  10      60.605  33.804  -9.574  0.00  0.00    +0.002 C 
BRANCH  28  30
ATOM     30  CG1 ILE A  10      59.649  33.384  -7.314  0.00  0.00    +0.002 C 
ATOM     31  CD1 ILE A  10      59.567  34.872  -6.952  0.00  0.00    +0.000 C 
ENDBRANCH  28  30
ENDBRANCH  25  28
ENDBRANCH  23  25
ENDBRANCH  20  21
BRANCH  20  32
ATOM     32  CB  PHE A   9      61.547  28.011  -5.831  0.00  0.00    +0.055 C 
BRANCH  32  33
ATOM     33  CG  PHE A   9      62.222  27.144  -4.761  0.00  0.00    -0.020 A 
ATOM     34  CD2 PHE A   9      61.465  26.394  -3.879  0.00  0.00    -0.004 A 
ATOM     35  CE2 PHE A   9      62.088  25.602  -2.937  0.00  0.00    -0.000 A 
ATOM     36  CZ  PHE A   9      63.461  25.547  -2.866  0.00  0.00    -0.000 A 
ATOM     37  CE1 PHE A   9      64.212  26.292  -3.743  0.00  0.00    -0.000 A 
ATOM     38  CD1 PHE A   9      63.601  27.090  -4.688  0.00  0.00    -0.004 A 
ENDBRANCH  32  33
ENDBRANCH  20  32
ENDBRANCH  18  20
ENDBRANCH  15  16
ENDBRANCH  13  15
ENDBRANCH  10  11
ENDBRANCH   8  10
ENDBRANCH   5   6
BRANCH   5  39
ATOM     39  CB  ILE A   6      59.911  34.012   2.785  0.00  0.00    +0.027 C 
ATOM     40  CG2 ILE A   6      58.415  34.021   2.972  0.00  0.00    +0.002 C 
BRANCH  39  41
ATOM     41  CG1 ILE A   6      60.592  34.384   4.088  0.00  0.00    +0.002 C 
ATOM     42  CD1 ILE A   6      62.141  34.434   4.066  0.00  0.00    +0.000 C 
ENDBRANCH  39  41
ENDBRANCH   5  39
ENDBRANCH   2   5
BRANCH   1  43
ATOM     43  CA  GLY A   5      62.623  33.021  -0.710  0.00  0.00    +0.176 C 
BRANCH  43  45
ATOM     44  C   GLY A   4      64.148  32.408  -2.484  0.00  0.00    +0.243 C 
ATOM     45  N   GLY A   5      63.103  32.128  -1.724  0.00  0.00    -0.295 N 
ATOM     46  H   GLY A   5      62.609  31.224  -1.867  0.00  0.00    +0.150 HD
ATOM     47  O   GLY A   4      64.901  33.408  -2.440  0.00  0.00    -0.273 OA
BRANCH  44  48
ATOM     48  CA  GLY A   4      64.403  31.173  -3.324  0.00  0.00    +0.176 C 
BRANCH  48  50
ATOM     49  C   ILE A   3      64.721  31.304  -5.747  0.00  0.00    +0.241 C 
ATOM     50  N   GLY A   4      65.223  31.371  -4.517  0.00  0.00    -0.295 N 
ATOM     51  H   GLY A   4      66.237  31.572  -4.400  0.00  0.00    +0.150 HD
ATOM     52  O   ILE A   3      63.531  31.066  -5.964  0.00  0.00    -0.273 OA
BRANCH  49  53
ATOM     53  CA  ILE A   3      65.736  31.390  -6.879  0.00  0.00    +0.149 C 
BRANCH  53  56
ATOM     54  C   MET A   2      65.679  29.480  -8.347  0.00  0.00    +0.241 C 
ATOM     55  O   MET A   2      66.528  28.939  -7.641  0.00  0.00    -0.273 OA
ATOM     56  N   ILE A   3      65.262  30.710  -8.070  0.00  0.00    -0.297 N 
ATOM     57  H   ILE A   3      64.594  31.187  -8.708  0.00  0.00    +0.150 HD
BRANCH  54  58
ATOM     58  CA  MET A   2      65.223  28.769  -9.602  0.00  0.00    +0.149 C 
BRANCH  58  60
ATOM     59  C   LYS A   1      66.440  29.308 -11.634  0.00  0.00    +0.238 C 
ATOM     60  N   MET A   2      66.412  28.780 -10.425  0.00  0.00    -0.297 N 
ATOM     61  H   MET A   2      67.282  28.354 -10.048  0.00  0.00    +0.150 HD
ATOM     62  O   LYS A   1      65.450  29.860 -12.105  0.00  0.00    -0.274 OA
BRANCH  59  63
ATOM     63  CA  LYS A   1      67.723  29.208 -12.429  0.00  0.00    +0.145 C 
BRANCH  63  64
ATOM     64  N   LYS A   1      67.244  29.074 -13.782  0.00  0.00    -0.238 NA
ATOM     65  H   LYS A   1      66.389  29.591 -14.070  0.00  0.00    +0.142 HD
ENDBRANCH  63  64
BRANCH  63  66
ATOM     66  CB  LYS A   1      68.570  30.469 -12.310  0.00  0.00    +0.026 C 
BRANCH  66  67
ATOM     67  CG  LYS A   1      69.381  30.535 -11.030  0.00  0.00    -0.000 C 
BRANCH  67  68
ATOM     68  CD  LYS A   1      70.480  31.577 -11.184  0.00  0.00    -0.024 C 
BRANCH  68  69
ATOM     69  CE  LYS A   1      71.425  31.673  -9.984  0.00  0.00    -0.086 C 
BRANCH  69  70
ATOM     70  NZ  LYS A   1      70.763  32.194  -8.802  0.00  0.00    +0.380 N 
ATOM     71  HZ1 LYS A   1      71.444  32.240  -8.017  0.00  0.00    -0.089 HD
ATOM     72  HZ2 LYS A   1      69.975  31.567  -8.543  0.00  0.00    -0.089 HD
ATOM     73  HZ3 LYS A   1      70.398  33.147  -9.002  0.00  0.00    -0.089 HD
ENDBRANCH  69  70
ENDBRANCH  68  69
ENDBRANCH  67  68
ENDBRANCH  66  67
ENDBRANCH  63  66
ENDBRANCH  59  63
ENDBRANCH  58  60
BRANCH  58  74
ATOM     74  CB  MET A   2      64.853  27.310  -9.365  0.00  0.00    +0.041 C 
BRANCH  74  75
ATOM     75  CG  MET A   2      63.579  27.072  -8.598  0.00  0.00    +0.060 C 
BRANCH  75  76
ATOM     76  SD  MET A   2      62.175  27.921  -9.354  0.00  0.00    -0.139 S 
ATOM     77  CE  MET A   2      61.148  26.561  -9.831  0.00  0.00    +0.069 C 
ENDBRANCH  75  76
ENDBRANCH  74  75
ENDBRANCH  58  74
ENDBRANCH  54  58
ENDBRANCH  53  56
BRANCH  53  78
ATOM     78  CB  ILE A   3      66.115  32.875  -7.225  0.00  0.00    +0.027 C 
ATOM     79  CG2 ILE A   3      67.332  32.769  -8.147  0.00  0.00    +0.002 C 
BRANCH  78  80
ATOM     80  CG1 ILE A   3      65.015  33.694  -7.870  0.00  0.00    +0.002 C 
ATOM     81  CD1 ILE A   3      65.511  35.101  -8.300  0.00  0.00    +0.000 C 
ENDBRANCH  78  80
ENDBRANCH  53  78
ENDBRANCH  49  53
ENDBRANCH  48  50
ENDBRANCH  44  48
ENDBRANCH  43  45
ENDBRANCH   1  43
TORSDOF 36
REMARK  Name = ../refined-set-2016/1aid/1aid_pocket.pdb
REMARK  204 active torsions:
REMARK  status: ('A' for Active; 'I' for Inactive)
REMARK    1  A    between atoms: _1  and  _3
REMARK    2  A    between atoms: _3  and  _4
REMARK    3  A    between atoms: _3  and  _6
REMARK    4  A    between atoms: _6  and  _7
REMARK    5  A    between atoms: _10  and  _12
REMARK    6  A    between atoms: _12  and  _13
REMARK    7  A    between atoms: _15  and  _17
REMARK    8  A    between atoms: _17  and  _18
REMARK    9  A    between atoms: _21  and  _23
REMARK   10  A    between atoms: _23  and  _24
REMARK   11  A    between atoms: _23  and  _26
REMARK   12  A    between atoms: _26  and  _27
REMARK   13  A    between atoms: _30  and  _32
REMARK   14  A    between atoms: _32  and  _33
REMARK   15  A    between atoms: _32  and  _35
REMARK   16  A    between atoms: _35  and  _36
REMARK   17  A    between atoms: _39  and  _41
REMARK   18  A    between atoms: _41  and  _42
REMARK   19  A    between atoms: _41  and  _44
REMARK   20  A    between atoms: _44  and  _45
REMARK   21  A    between atoms: _48  and  _50
REMARK   22  A    between atoms: _50  and  _51
REMARK   23  A    between atoms: _50  and  _53
REMARK   24  A    between atoms: _56  and  _58
REMARK   25  A    between atoms: _58  and  _59
REMARK   26  A    between atoms: _58  and  _61
REMARK   27  A    between atoms: _61  and  _62
REMARK   28  A    between atoms: _65  and  _67
REMARK   29  A    between atoms: _67  and  _68
REMARK   30  A    between atoms: _67  and  _70
REMARK   31  A    between atoms: _70  and  _71
REMARK   32  A    between atoms: _71  and  _72
REMARK   33  A    between atoms: _72  and  _73
REMARK   34  A    between atoms: _73  and  _74
REMARK   35  A    between atoms: _78  and  _80
REMARK   36  A    between atoms: _80  and  _81
REMARK   37  A    between atoms: _80  and  _83
REMARK   38  A    between atoms: _83  and  _84
REMARK   39  A    between atoms: _84  and  _85
REMARK   40  A    between atoms: _87  and  _89
REMARK   41  A    between atoms: _89  and  _90
REMARK   42  A    between atoms: _89  and  _92
REMARK   43  A    between atoms: _92  and  _93
REMARK   44  A    between atoms: _96  and  _98
REMARK   45  A    between atoms: _98  and  _99
REMARK   46  A    between atoms: _101  and  _103
REMARK   47  A    between atoms: _103  and  _104
REMARK   48  A    between atoms: _106  and  _108
REMARK   49  A    between atoms: _108  and  _109
REMARK   50  A    between atoms: _108  and  _111
REMARK   51  A    between atoms: _111  and  _112
REMARK   52  A    between atoms: _115  and  _117
REMARK   53  A    between atoms: _117  and  _118
REMARK   54  A    between atoms: _120  and  _122
REMARK   55  A    between atoms: _122  and  _123
REMARK   56  A    between atoms: _125  and  _127
REMARK   57  A    between atoms: _127  and  _128
REMARK   58  A    between atoms: _127  and  _130
REMARK   59  A    between atoms: _130  and  _131
REMARK   60  A    between atoms: _137  and  _139
REMARK   61  A    between atoms: _139  and  _140
REMARK   62  A    between atoms: _139  and  _142
REMARK   63  A    between atoms: _142  and  _143
REMARK   64  A    between atoms: _146  and  _148
REMARK   65  A    between atoms: _148  and  _149
REMARK   66  A    between atoms: _148  and  _151
REMARK   67  A    between atoms: _154  and  _156
REMARK   68  A    between atoms: _156  and  _157
REMARK   69  A    between atoms: _156  and  _159
REMARK   70  A    between atoms: _159  and  _160
REMARK   71  A    between atoms: _163  and  _165
REMARK   72  A    between atoms: _165  and  _166
REMARK   73  A    between atoms: _169  and  _170
REMARK   74  A    between atoms: _175  and  _177
REMARK   75  A    between atoms: _177  and  _178
REMARK   76  A    between atoms: _177  and  _180
REMARK   77  A    between atoms: _180  and  _181
REMARK   78  A    between atoms: _185  and  _186
REMARK   79  A    between atoms: _191  and  _193
REMARK   80  A    between atoms: _193  and  _194
REMARK   81  A    between atoms: _193  and  _196
REMARK   82  A    between atoms: _199  and  _201
REMARK   83  A    between atoms: _201  and  _202
REMARK   84  A    between atoms: _201  and  _204
REMARK   85  A    between atoms: _204  and  _205
REMARK   86  A    between atoms: _210  and  _212
REMARK   87  A    between atoms: _212  and  _213
REMARK   88  A    between atoms: _212  and  _215
REMARK   89  A    between atoms: _215  and  _216
REMARK   90  A    between atoms: _219  and  _221
REMARK   91  A    between atoms: _221  and  _222
REMARK   92  A    between atoms: _221  and  _224
REMARK   93  A    between atoms: _224  and  _225
REMARK   94  A    between atoms: _228  and  _230
REMARK   95  A    between atoms: _230  and  _231
REMARK   96  A    between atoms: _233  and  _235
REMARK   97  A    between atoms: _235  and  _236
REMARK   98  A    between atoms: _235  and  _238
REMARK   99  A    between atoms: _238  and  _239
REMARK  100  A    between atoms: _239  and  _240
REMARK  101  A    between atoms: _240  and  _241
REMARK  102  A    between atoms: _250  and  _252
REMARK  103  A    between atoms: _252  and  _253
REMARK  104  A    between atoms: _252  and  _255
REMARK  105  A    between atoms: _255  and  _256
REMARK  106  A    between atoms: _256  and  _257
REMARK  107  A    between atoms: _257  and  _258
REMARK  108  A    between atoms: _267  and  _269
REMARK  109  A    between atoms: _269  and  _270
REMARK  110  A    between atoms: _269  and  _272
REMARK  111  A    between atoms: _272  and  _273
REMARK  112  A    between atoms: _276  and  _278
REMARK  113  A    between atoms: _278  and  _279
REMARK  114  A    between atoms: _281  and  _283
REMARK  115  A    between atoms: _283  and  _284
REMARK  116  A    between atoms: _287  and  _289
REMARK  117  A    between atoms: _289  and  _290
REMARK  118  A    between atoms: _289  and  _292
REMARK  119  A    between atoms: _292  and  _293
REMARK  120  A    between atoms: _296  and  _298
REMARK  121  A    between atoms: _298  and  _299
REMARK  122  A    between atoms: _298  and  _301
REMARK  123  A    between atoms: _301  and  _302
REMARK  124  A    between atoms: _305  and  _307
REMARK  125  A    between atoms: _307  and  _308
REMARK  126  A    between atoms: _307  and  _310
REMARK  127  A    between atoms: _313  and  _315
REMARK  128  A    between atoms: _315  and  _316
REMARK  129  A    between atoms: _315  and  _318
REMARK  130  A    between atoms: _318  and  _319
REMARK  131  A    between atoms: _322  and  _324
REMARK  132  A    between atoms: _324  and  _325
REMARK  133  A    between atoms: _324  and  _327
REMARK  134  A    between atoms: _327  and  _328
REMARK  135  A    between atoms: _328  and  _329
REMARK  136  A    between atoms: _332  and  _334
REMARK  137  A    between atoms: _334  and  _335
REMARK  138  A    between atoms: _334  and  _337
REMARK  139  A    between atoms: _337  and  _338
REMARK  140  A    between atoms: _338  and  _339
REMARK  141  A    between atoms: _341  and  _343
REMARK  142  A    between atoms: _343  and  _344
REMARK  143  A    between atoms: _343  and  _346
REMARK  144  A    between atoms: _346  and  _347
REMARK  145  A    between atoms: _350  and  _352
REMARK  146  A    between atoms: _352  and  _353
REMARK  147  A    between atoms: _355  and  _357
REMARK  148  A    between atoms: _357  and  _358
REMARK  149  A    between atoms: _360  and  _362
REMARK  150  A    between atoms: _362  and  _363
REMARK  151  A    between atoms: _362  and  _365
REMARK  152  A    between atoms: _365  and  _366
REMARK  153  A    between atoms: _369  and  _371
REMARK  154  A    between atoms: _371  and  _372
REMARK  155  A    between atoms: _374  and  _376
REMARK  156  A    between atoms: _376  and  _377
REMARK  157  A    between atoms: _376  and  _379
REMARK  158  A    between atoms: _379  and  _380
REMARK  159  A    between atoms: _386  and  _388
REMARK  160  A    between atoms: _388  and  _389
REMARK  161  A    between atoms: _388  and  _391
REMARK  162  A    between atoms: _391  and  _392
REMARK  163  A    between atoms: _395  and  _397
REMARK  164  A    between atoms: _397  and  _398
REMARK  165  A    between atoms: _397  and  _400
REMARK  166  A    between atoms: _400  and  _401
REMARK  167  A    between atoms: _401  and  _402
REMARK  168  A    between atoms: _402  and  _403
REMARK  169  A    between atoms: _403  and  _404
REMARK  170  A    between atoms: _408  and  _410
REMARK  171  A    between atoms: _410  and  _411
REMARK  172  A    between atoms: _410  and  _413
REMARK  173  A    between atoms: _416  and  _418
REMARK  174  A    between atoms: _418  and  _419
REMARK  175  A    between atoms: _418  and  _421
REMARK  176  A    between atoms: _421  and  _422
REMARK  177  A    between atoms: _422  and  _423
REMARK  178  A    between atoms: _423  and  _424
REMARK  179  A    between atoms: _433  and  _435
REMARK  180  A    between atoms: _435  and  _436
REMARK  181  A    between atoms: _435  and  _438
REMARK  182  A    between atoms: _438  and  _439
REMARK  183  A    between atoms: _442  and  _444
REMARK  184  A    between atoms: _444  and  _445
REMARK  185  A    between atoms: _444  and  _447
REMARK  186  A    between atoms: _450  and  _452
REMARK  187  A    between atoms: _452  and  _453
REMARK  188  A    between atoms: _456  and  _457
REMARK  189  A    between atoms: _462  and  _464
REMARK  190  A    between atoms: _464  and  _465
REMARK  191  A    between atoms: _464  and  _467
REMARK  192  A    between atoms: _467  and  _468
REMARK  193  A    between atoms: _472  and  _473
REMARK  194  A    between atoms: _478  and  _480
REMARK  195  A    between atoms: _480  and  _481
REMARK  196  A    between atoms: _480  and  _483
REMARK  197  A    between atoms: _486  and  _488
REMARK  198  A    between atoms: _488  and  _489
REMARK  199  A    between atoms: _488  and  _491
REMARK  200  A    between atoms: _491  and  _492
REMARK  201  A    between atoms: _497  and  _499
REMARK  202  A    between atoms: _499  and  _500
REMARK  203  A    between atoms: _499  and  _502
REMARK  204  A    between atoms: _502  and  _503
REMARK                            x       y       z     vdW  Elec       q    Type
REMARK                         _______ _______ _______ _____ _____    ______ ____
ROOT
ATOM      1  CA  VAL A   1      64.068  32.931 -13.706  0.00  0.00    +0.133 C 
ENDROOT
BRANCH   1   2
ATOM      2  CB  VAL A   1      64.848  33.974 -12.786  0.00  0.00    +0.023 C 
ATOM      3  CG2 VAL A   1      63.941  34.574 -11.732  0.00  0.00    +0.002 C 
ATOM      4  CG1 VAL A   1      66.008  33.308 -12.087  0.00  0.00    +0.002 C 
ENDBRANCH   1   2
BRANCH   1   5
ATOM      5  N   VAL A   1      63.557  31.777 -12.983  0.00  0.00    -0.239 NA
ATOM      6  H   VAL A   1      64.234  31.042 -12.695  0.00  0.00    +0.142 HD
ENDBRANCH   1   5
BRANCH   1   7
ATOM      7  C   VAL A   1      65.037  32.380 -14.756  0.00  0.00    +0.224 C 
ATOM      8  O   VAL A   1      65.424  31.196 -14.745  0.00  0.00    -0.287 OA
ENDBRANCH   1   7
TORSDOF 3
REMARK  Name = ../refined-set-2016/1aid/1aid_pocket.pdb
REMARK  204 active torsions:
REMARK  status: ('A' for Active; 'I' for Inactive)
REMARK    1  A    between atoms: _1  and  _3
REMARK    2  A    between atoms: _3  and  _4
REMARK    3  A    between atoms: _3  and  _6
REMARK    4  A    between atoms: _6  and  _7
REMARK    5  A    between atoms: _10  and  _12
REMARK    6  A    between atoms: _12  and  _13
REMARK    7  A    between atoms: _15  and  _17
REMARK    8  A    between atoms: _17  and  _18
REMARK    9  A    between atoms: _21  and  _23
REMARK   10  A    between atoms: _23  and  _24
REMARK   11  A    between atoms: _23  and  _26
REMARK   12  A    between atoms: _26  and  _27
REMARK   13  A    between atoms: _30  and  _32
REMARK   14  A    between atoms: _32  and  _33
REMARK   15  A    between atoms: _32  and  _35
REMARK   16  A    between atoms: _35  and  _36
REMARK   17  A    between atoms: _39  and  _41
REMARK   18  A    between atoms: _41  and  _42
REMARK   19  A    between atoms: _41  and  _44
REMARK   20  A    between atoms: _44  and  _45
REMARK   21  A    between atoms: _48  and  _50
REMARK   22  A    between atoms: _50  and  _51
REMARK   23  A    between atoms: _50  and  _53
REMARK   24  A    between atoms: _56  and  _58
REMARK   25  A    between atoms: _58  and  _59
REMARK   26  A    between atoms: _58  and  _61
REMARK   27  A    between atoms: _61  and  _62
REMARK   28  A    between atoms: _65  and  _67
REMARK   29  A    between atoms: _67  and  _68
REMARK   30  A    between atoms: _67  and  _70
REMARK   31  A    between atoms: _70  and  _71
REMARK   32  A    between atoms: _71  and  _72
REMARK   33  A    between atoms: _72  and  _73
REMARK   34  A    between atoms: _73  and  _74
REMARK   35  A    between atoms: _78  and  _80
REMARK   36  A    between atoms: _80  and  _81
REMARK   37  A    between atoms: _80  and  _83
REMARK   38  A    between atoms: _83  and  _84
REMARK   39  A    between atoms: _84  and  _85
REMARK   40  A    between atoms: _87  and  _89
REMARK   41  A    between atoms: _89  and  _90
REMARK   42  A    between atoms: _89  and  _92
REMARK   43  A    between atoms: _92  and  _93
REMARK   44  A    between atoms: _96  and  _98
REMARK   45  A    between atoms: _98  and  _99
REMARK   46  A    between atoms: _101  and  _103
REMARK   47  A    between atoms: _103  and  _104
REMARK   48  A    between atoms: _106  and  _108
REMARK   49  A    between atoms: _108  and  _109
REMARK   50  A    between atoms: _108  and  _111
REMARK   51  A    between atoms: _111  and  _112
REMARK   52  A    between atoms: _115  and  _117
REMARK   53  A    between atoms: _117  and  _118
REMARK   54  A    between atoms: _120  and  _122
REMARK   55  A    between atoms: _122  and  _123
REMARK   56  A    between atoms: _125  and  _127
REMARK   57  A    between atoms: _127  and  _128
REMARK   58  A    between atoms: _127  and  _130
REMARK   59  A    between atoms: _130  and  _131
REMARK   60  A    between atoms: _137  and  _139
REMARK   61  A    between atoms: _139  and  _140
REMARK   62  A    between atoms: _139  and  _142
REMARK   63  A    between atoms: _142  and  _143
REMARK   64  A    between atoms: _146  and  _148
REMARK   65  A    between atoms: _148  and  _149
REMARK   66  A    between atoms: _148  and  _151
REMARK   67  A    between atoms: _154  and  _156
REMARK   68  A    between atoms: _156  and  _157
REMARK   69  A    between atoms: _156  and  _159
REMARK   70  A    between atoms: _159  and  _160
REMARK   71  A    between atoms: _163  and  _165
REMARK   72  A    between atoms: _165  and  _166
REMARK   73  A    between atoms: _169  and  _170
REMARK   74  A    between atoms: _175  and  _177
REMARK   75  A    between atoms: _177  and  _178
REMARK   76  A    between atoms: _177  and  _180
REMARK   77  A    between atoms: _180  and  _181
REMARK   78  A    between atoms: _185  and  _186
REMARK   79  A    between atoms: _191  and  _193
REMARK   80  A    between atoms: _193  and  _194
REMARK   81  A    between atoms: _193  and  _196
REMARK   82  A    between atoms: _199  and  _201
REMARK   83  A    between atoms: _201  and  _202
REMARK   84  A    between atoms: _201  and  _204
REMARK   85  A    between atoms: _204  and  _205
REMARK   86  A    between atoms: _210  and  _212
REMARK   87  A    between atoms: _212  and  _213
REMARK   88  A    between atoms: _212  and  _215
REMARK   89  A    between atoms: _215  and  _216
REMARK   90  A    between atoms: _219  and  _221
REMARK   91  A    between atoms: _221  and  _222
REMARK   92  A    between atoms: _221  and  _224
REMARK   93  A    between atoms: _224  and  _225
REMARK   94  A    between atoms: _228  and  _230
REMARK   95  A    between atoms: _230  and  _231
REMARK   96  A    between atoms: _233  and  _235
REMARK   97  A    between atoms: _235  and  _236
REMARK   98  A    between atoms: _235  and  _238
REMARK   99  A    between atoms: _238  and  _239
REMARK  100  A    between atoms: _239  and  _240
REMARK  101  A    between atoms: _240  and  _241
REMARK  102  A    between atoms: _250  and  _252
REMARK  103  A    between atoms: _252  and  _253
REMARK  104  A    between atoms: _252  and  _255
REMARK  105  A    between atoms: _255  and  _256
REMARK  106  A    between atoms: _256  and  _257
REMARK  107  A    between atoms: _257  and  _258
REMARK  108  A    between atoms: _267  and  _269
REMARK  109  A    between atoms: _269  and  _270
REMARK  110  A    between atoms: _269  and  _272
REMARK  111  A    between atoms: _272  and  _273
REMARK  112  A    between atoms: _276  and  _278
REMARK  113  A    between atoms: _278  and  _279
REMARK  114  A    between atoms: _281  and  _283
REMARK  115  A    between atoms: _283  and  _284
REMARK  116  A    between atoms: _287  and  _289
REMARK  117  A    between atoms: _289  and  _290
REMARK  118  A    between atoms: _289  and  _292
REMARK  119  A    between atoms: _292  and  _293
REMARK  120  A    between atoms: _296  and  _298
REMARK  121  A    between atoms: _298  and  _299
REMARK  122  A    between atoms: _298  and  _301
REMARK  123  A    between atoms: _301  and  _302
REMARK  124  A    between atoms: _305  and  _307
REMARK  125  A    between atoms: _307  and  _308
REMARK  126  A    between atoms: _307  and  _310
REMARK  127  A    between atoms: _313  and  _315
REMARK  128  A    between atoms: _315  and  _316
REMARK  129  A    between atoms: _315  and  _318
REMARK  130  A    between atoms: _318  and  _319
REMARK  131  A    between atoms: _322  and  _324
REMARK  132  A    between atoms: _324  and  _325
REMARK  133  A    between atoms: _324  and  _327
REMARK  134  A    between atoms: _327  and  _328
REMARK  135  A    between atoms: _328  and  _329
REMARK  136  A    between atoms: _332  and  _334
REMARK  137  A    between atoms: _334  and  _335
REMARK  138  A    between atoms: _334  and  _337
REMARK  139  A    between atoms: _337  and  _338
REMARK  140  A    between atoms: _338  and  _339
REMARK  141  A    between atoms: _341  and  _343
REMARK  142  A    between atoms: _343  and  _344
REMARK  143  A    between atoms: _343  and  _346
REMARK  144  A    between atoms: _346  and  _347
REMARK  145  A    between atoms: _350  and  _352
REMARK  146  A    between atoms: _352  and  _353
REMARK  147  A    between atoms: _355  and  _357
REMARK  148  A    between atoms: _357  and  _358
REMARK  149  A    between atoms: _360  and  _362
REMARK  150  A    between atoms: _362  and  _363
REMARK  151  A    between atoms: _362  and  _365
REMARK  152  A    between atoms: _365  and  _366
REMARK  153  A    between atoms: _369  and  _371
REMARK  154  A    between atoms: _371  and  _372
REMARK  155  A    between atoms: _374  and  _376
REMARK  156  A    between atoms: _376  and  _377
REMARK  157  A    between atoms: _376  and  _379
REMARK  158  A    between atoms: _379  and  _380
REMARK  159  A    between atoms: _386  and  _388
REMARK  160  A    between atoms: _388  and  _389
REMARK  161  A    between atoms: _388  and  _391
REMARK  162  A    between atoms: _391  and  _392
REMARK  163  A    between atoms: _395  and  _397
REMARK  164  A    between atoms: _397  and  _398
REMARK  165  A    between atoms: _397  and  _400
REMARK  166  A    between atoms: _400  and  _401
REMARK  167  A    between atoms: _401  and  _402
REMARK  168  A    between atoms: _402  and  _403
REMARK  169  A    between atoms: _403  and  _404
REMARK  170  A    between atoms: _408  and  _410
REMARK  171  A    between atoms: _410  and  _411
REMARK  172  A    between atoms: _410  and  _413
REMARK  173  A    between atoms: _416  and  _418
REMARK  174  A    between atoms: _418  and  _419
REMARK  175  A    between atoms: _418  and  _421
REMARK  176  A    between atoms: _421  and  _422
REMARK  177  A    between atoms: _422  and  _423
REMARK  178  A    between atoms: _423  and  _424
REMARK  179  A    between atoms: _433  and  _435
REMARK  180  A    between atoms: _435  and  _436
REMARK  181  A    between atoms: _435  and  _438
REMARK  182  A    between atoms: _438  and  _439
REMARK  183  A    between atoms: _442  and  _444
REMARK  184  A    between atoms: _444  and  _445
REMARK  185  A    between atoms: _444  and  _447
REMARK  186  A    between atoms: _450  and  _452
REMARK  187  A    between atoms: _452  and  _453
REMARK  188  A    between atoms: _456  and  _457
REMARK  189  A    between atoms: _462  and  _464
REMARK  190  A    between atoms: _464  and  _465
REMARK  191  A    between atoms: _464  and  _467
REMARK  192  A    between atoms: _467  and  _468
REMARK  193  A    between atoms: _472  and  _473
REMARK  194  A    between atoms: _478  and  _480
REMARK  195  A    between atoms: _480  and  _481
REMARK  196  A    between atoms: _480  and  _483
REMARK  197  A    between atoms: _486  and  _488
REMARK  198  A    between atoms: _488  and  _489
REMARK  199  A    between atoms: _488  and  _491
REMARK  200  A    between atoms: _491  and  _492
REMARK  201  A    between atoms: _497  and  _499
REMARK  202  A    between atoms: _499  and  _500
REMARK  203  A    between atoms: _499  and  _502
REMARK  204  A    between atoms: _502  and  _503
REMARK                            x       y       z     vdW  Elec       q    Type
REMARK                         _______ _______ _______ _____ _____    ______ ____
ROOT
ATOM      1  CA  LEU A   1      68.599  37.131 -14.022  0.00  0.00    +0.133 C 
ENDROOT
BRANCH   1   2
ATOM      2  N   LEU A   1      69.619  38.168 -14.090  0.00  0.00    -0.239 NA
ATOM      3  H   LEU A   1      69.631  38.930 -13.382  0.00  0.00    +0.142 HD
ENDBRANCH   1   2
BRANCH   1   4
ATOM      4  C   LEU A   1      67.337  37.885 -14.457  0.00  0.00    +0.224 C 
ATOM      5  O   LEU A   1      67.142  39.024 -14.010  0.00  0.00    -0.287 OA
ENDBRANCH   1   4
BRANCH   1   6
ATOM      6  CB  LEU A   1      68.468  36.628 -12.619  0.00  0.00    +0.025 C 
BRANCH   6   7
ATOM      7  CG  LEU A   1      69.674  36.013 -12.019  0.00  0.00    +0.002 C 
ATOM      8  CD2 LEU A   1      69.373  35.451 -10.665  0.00  0.00    +0.000 C 
ATOM      9  CD1 LEU A   1      70.084  34.874 -12.871  0.00  0.00    +0.000 C 
ENDBRANCH   6   7
ENDBRANCH   1   6
TORSDOF 4
REMARK  Name = ../refined-set-2016/1aid/1aid_pocket.pdb
REMARK  204 active torsions:
REMARK  status: ('A' for Active; 'I' for Inactive)
REMARK    1  A    between atoms: _1  and  _3
REMARK    2  A    between atoms: _3  and  _4
REMARK    3  A    between atoms: _3  and  _6
REMARK    4  A    between atoms: _6  and  _7
REMARK    5  A    between atoms: _10  and  _12
REMARK    6  A    between atoms: _12  and  _13
REMARK    7  A    between atoms: _15  and  _17
REMARK    8  A    between atoms: _17  and  _18
REMARK    9  A    between atoms: _21  and  _23
REMARK   10  A    between atoms: _23  and  _24
REMARK   11  A    between atoms: _23  and  _26
REMARK   12  A    between atoms: _26  and  _27
REMARK   13  A    between atoms: _30  and  _32
REMARK   14  A    between atoms: _32  and  _33
REMARK   15  A    between atoms: _32  and  _35
REMARK   16  A    between atoms: _35  and  _36
REMARK   17  A    between atoms: _39  and  _41
REMARK   18  A    between atoms: _41  and  _42
REMARK   19  A    between atoms: _41  and  _44
REMARK   20  A    between atoms: _44  and  _45
REMARK   21  A    between atoms: _48  and  _50
REMARK   22  A    between atoms: _50  and  _51
REMARK   23  A    between atoms: _50  and  _53
REMARK   24  A    between atoms: _56  and  _58
REMARK   25  A    between atoms: _58  and  _59
REMARK   26  A    between atoms: _58  and  _61
REMARK   27  A    between atoms: _61  and  _62
REMARK   28  A    between atoms: _65  and  _67
REMARK   29  A    between atoms: _67  and  _68
REMARK   30  A    between atoms: _67  and  _70
REMARK   31  A    between atoms: _70  and  _71
REMARK   32  A    between atoms: _71  and  _72
REMARK   33  A    between atoms: _72  and  _73
REMARK   34  A    between atoms: _73  and  _74
REMARK   35  A    between atoms: _78  and  _80
REMARK   36  A    between atoms: _80  and  _81
REMARK   37  A    between atoms: _80  and  _83
REMARK   38  A    between atoms: _83  and  _84
REMARK   39  A    between atoms: _84  and  _85
REMARK   40  A    between atoms: _87  and  _89
REMARK   41  A    between atoms: _89  and  _90
REMARK   42  A    between atoms: _89  and  _92
REMARK   43  A    between atoms: _92  and  _93
REMARK   44  A    between atoms: _96  and  _98
REMARK   45  A    between atoms: _98  and  _99
REMARK   46  A    between atoms: _101  and  _103
REMARK   47  A    between atoms: _103  and  _104
REMARK   48  A    between atoms: _106  and  _108
REMARK   49  A    between atoms: _108  and  _109
REMARK   50  A    between atoms: _108  and  _111
REMARK   51  A    between atoms: _111  and  _112
REMARK   52  A    between atoms: _115  and  _117
REMARK   53  A    between atoms: _117  and  _118
REMARK   54  A    between atoms: _120  and  _122
REMARK   55  A    between atoms: _122  and  _123
REMARK   56  A    between atoms: _125  and  _127
REMARK   57  A    between atoms: _127  and  _128
REMARK   58  A    between atoms: _127  and  _130
REMARK   59  A    between atoms: _130  and  _131
REMARK   60  A    between atoms: _137  and  _139
REMARK   61  A    between atoms: _139  and  _140
REMARK   62  A    between atoms: _139  and  _142
REMARK   63  A    between atoms: _142  and  _143
REMARK   64  A    between atoms: _146  and  _148
REMARK   65  A    between atoms: _148  and  _149
REMARK   66  A    between atoms: _148  and  _151
REMARK   67  A    between atoms: _154  and  _156
REMARK   68  A    between atoms: _156  and  _157
REMARK   69  A    between atoms: _156  and  _159
REMARK   70  A    between atoms: _159  and  _160
REMARK   71  A    between atoms: _163  and  _165
REMARK   72  A    between atoms: _165  and  _166
REMARK   73  A    between atoms: _169  and  _170
REMARK   74  A    between atoms: _175  and  _177
REMARK   75  A    between atoms: _177  and  _178
REMARK   76  A    between atoms: _177  and  _180
REMARK   77  A    between atoms: _180  and  _181
REMARK   78  A    between atoms: _185  and  _186
REMARK   79  A    between atoms: _191  and  _193
REMARK   80  A    between atoms: _193  and  _194
REMARK   81  A    between atoms: _193  and  _196
REMARK   82  A    between atoms: _199  and  _201
REMARK   83  A    between atoms: _201  and  _202
REMARK   84  A    between atoms: _201  and  _204
REMARK   85  A    between atoms: _204  and  _205
REMARK   86  A    between atoms: _210  and  _212
REMARK   87  A    between atoms: _212  and  _213
REMARK   88  A    between atoms: _212  and  _215
REMARK   89  A    between atoms: _215  and  _216
REMARK   90  A    between atoms: _219  and  _221
REMARK   91  A    between atoms: _221  and  _222
REMARK   92  A    between atoms: _221  and  _224
REMARK   93  A    between atoms: _224  and  _225
REMARK   94  A    between atoms: _228  and  _230
REMARK   95  A    between atoms: _230  and  _231
REMARK   96  A    between atoms: _233  and  _235
REMARK   97  A    between atoms: _235  and  _236
REMARK   98  A    between atoms: _235  and  _238
REMARK   99  A    between atoms: _238  and  _239
REMARK  100  A    between atoms: _239  and  _240
REMARK  101  A    between atoms: _240  and  _241
REMARK  102  A    between atoms: _250  and  _252
REMARK  103  A    between atoms: _252  and  _253
REMARK  104  A    between atoms: _252  and  _255
REMARK  105  A    between atoms: _255  and  _256
REMARK  106  A    between atoms: _256  and  _257
REMARK  107  A    between atoms: _257  and  _258
REMARK  108  A    between atoms: _267  and  _269
REMARK  109  A    between atoms: _269  and  _270
REMARK  110  A    between atoms: _269  and  _272
REMARK  111  A    between atoms: _272  and  _273
REMARK  112  A    between atoms: _276  and  _278
REMARK  113  A    between atoms: _278  and  _279
REMARK  114  A    between atoms: _281  and  _283
REMARK  115  A    between atoms: _283  and  _284
REMARK  116  A    between atoms: _287  and  _289
REMARK  117  A    between atoms: _289  and  _290
REMARK  118  A    between atoms: _289  and  _292
REMARK  119  A    between atoms: _292  and  _293
REMARK  120  A    between atoms: _296  and  _298
REMARK  121  A    between atoms: _298  and  _299
REMARK  122  A    between atoms: _298  and  _301
REMARK  123  A    between atoms: _301  and  _302
REMARK  124  A    between atoms: _305  and  _307
REMARK  125  A    between atoms: _307  and  _308
REMARK  126  A    between atoms: _307  and  _310
REMARK  127  A    between atoms: _313  and  _315
REMARK  128  A    between atoms: _315  and  _316
REMARK  129  A    between atoms: _315  and  _318
REMARK  130  A    between atoms: _318  and  _319
REMARK  131  A    between atoms: _322  and  _324
REMARK  132  A    between atoms: _324  and  _325
REMARK  133  A    between atoms: _324  and  _327
REMARK  134  A    between atoms: _327  and  _328
REMARK  135  A    between atoms: _328  and  _329
REMARK  136  A    between atoms: _332  and  _334
REMARK  137  A    between atoms: _334  and  _335
REMARK  138  A    between atoms: _334  and  _337
REMARK  139  A    between atoms: _337  and  _338
REMARK  140  A    between atoms: _338  and  _339
REMARK  141  A    between atoms: _341  and  _343
REMARK  142  A    between atoms: _343  and  _344
REMARK  143  A    between atoms: _343  and  _346
REMARK  144  A    between atoms: _346  and  _347
REMARK  145  A    between atoms: _350  and  _352
REMARK  146  A    between atoms: _352  and  _353
REMARK  147  A    between atoms: _355  and  _357
REMARK  148  A    between atoms: _357  and  _358
REMARK  149  A    between atoms: _360  and  _362
REMARK  150  A    between atoms: _362  and  _363
REMARK  151  A    between atoms: _362  and  _365
REMARK  152  A    between atoms: _365  and  _366
REMARK  153  A    between atoms: _369  and  _371
REMARK  154  A    between atoms: _371  and  _372
REMARK  155  A    between atoms: _374  and  _376
REMARK  156  A    between atoms: _376  and  _377
REMARK  157  A    between atoms: _376  and  _379
REMARK  158  A    between atoms: _379  and  _380
REMARK  159  A    between atoms: _386  and  _388
REMARK  160  A    between atoms: _388  and  _389
REMARK  161  A    between atoms: _388  and  _391
REMARK  162  A    between atoms: _391  and  _392
REMARK  163  A    between atoms: _395  and  _397
REMARK  164  A    between atoms: _397  and  _398
REMARK  165  A    between atoms: _397  and  _400
REMARK  166  A    between atoms: _400  and  _401
REMARK  167  A    between atoms: _401  and  _402
REMARK  168  A    between atoms: _402  and  _403
REMARK  169  A    between atoms: _403  and  _404
REMARK  170  A    between atoms: _408  and  _410
REMARK  171  A    between atoms: _410  and  _411
REMARK  172  A    between atoms: _410  and  _413
REMARK  173  A    between atoms: _416  and  _418
REMARK  174  A    between atoms: _418  and  _419
REMARK  175  A    between atoms: _418  and  _421
REMARK  176  A    between atoms: _421  and  _422
REMARK  177  A    between atoms: _422  and  _423
REMARK  178  A    between atoms: _423  and  _424
REMARK  179  A    between atoms: _433  and  _435
REMARK  180  A    between atoms: _435  and  _436
REMARK  181  A    between atoms: _435  and  _438
REMARK  182  A    between atoms: _438  and  _439
REMARK  183  A    between atoms: _442  and  _444
REMARK  184  A    between atoms: _444  and  _445
REMARK  185  A    between atoms: _444  and  _447
REMARK  186  A    between atoms: _450  and  _452
REMARK  187  A    between atoms: _452  and  _453
REMARK  188  A    between atoms: _456  and  _457
REMARK  189  A    between atoms: _462  and  _464
REMARK  190  A    between atoms: _464  and  _465
REMARK  191  A    between atoms: _464  and  _467
REMARK  192  A    between atoms: _467  and  _468
REMARK  193  A    between atoms: _472  and  _473
REMARK  194  A    between atoms: _478  and  _480
REMARK  195  A    between atoms: _480  and  _481
REMARK  196  A    between atoms: _480  and  _483
REMARK  197  A    between atoms: _486  and  _488
REMARK  198  A    between atoms: _488  and  _489
REMARK  199  A    between atoms: _488  and  _491
REMARK  200  A    between atoms: _491  and  _492
REMARK  201  A    between atoms: _497  and  _499
REMARK  202  A    between atoms: _499  and  _500
REMARK  203  A    between atoms: _499  and  _502
REMARK  204  A    between atoms: _502  and  _503
REMARK                            x       y       z     vdW  Elec       q    Type
REMARK                         _______ _______ _______ _____ _____    ______ ____
ROOT
ATOM      1  CA  ASN A   6      64.680  45.626 -10.617  0.00  0.00    +0.158 C 
ENDROOT
BRANCH   1   4
ATOM      2  C   VAL A   5      62.750  45.064  -9.179  0.00  0.00    +0.241 C 
ATOM      3  O   VAL A   5      63.183  43.911  -9.039  0.00  0.00    -0.273 OA
ATOM      4  N   ASN A   6      63.394  45.931  -9.981  0.00  0.00    -0.297 N 
ATOM      5  H   ASN A   6      62.960  46.860 -10.158  0.00  0.00    +0.150 HD
BRANCH   2   6
ATOM      6  CA  VAL A   5      61.415  45.449  -8.517  0.00  0.00    +0.149 C 
BRANCH   6   9
ATOM      7  C   PRO A   4      59.289  44.154  -8.159  0.00  0.00    +0.241 C 
ATOM      8  O   PRO A   4      58.706  45.231  -8.062  0.00  0.00    -0.273 OA
ATOM      9  N   VAL A   5      60.615  44.215  -8.408  0.00  0.00    -0.297 N 
ATOM     10  H   VAL A   5      61.116  43.312  -8.534  0.00  0.00    +0.150 HD
BRANCH   7  16
ATOM     11  C   THR A   3      59.704  41.422  -9.719  0.00  0.00    +0.246 C 
ATOM     12  N   PRO A   4      59.221  41.625  -8.498  0.00  0.00    -0.272 N 
ATOM     13  CD  PRO A   4      59.255  40.653  -7.397  0.00  0.00    +0.094 C 
ATOM     14  CG  PRO A   4      58.923  41.528  -6.207  0.00  0.00    +0.024 C 
ATOM     15  CB  PRO A   4      57.937  42.519  -6.800  0.00  0.00    +0.031 C 
ATOM     16  CA  PRO A   4      58.508  42.848  -8.145  0.00  0.00    +0.152 C 
ATOM     17  O   THR A   3      59.462  42.193 -10.666  0.00  0.00    -0.273 OA
BRANCH  11  18
ATOM     18  CA  THR A   3      60.576  40.195  -9.888  0.00  0.00    +0.176 C 
BRANCH  18  21
ATOM     19  C   PRO A   2      59.213  38.701 -11.191  0.00  0.00    +0.241 C 
ATOM     20  O   PRO A   2      58.618  38.400 -10.146  0.00  0.00    -0.273 OA
ATOM     21  N   THR A   3      60.208  39.590 -11.156  0.00  0.00    -0.295 N 
ATOM     22  H   THR A   3      60.714  39.847 -12.027  0.00  0.00    +0.150 HD
BRANCH  19  25
ATOM     23  C   GLY A   1      60.915  37.915 -13.764  0.00  0.00    +0.243 C 
ATOM     24  N   PRO A   2      59.918  37.329 -13.116  0.00  0.00    -0.272 N 
ATOM     25  CA  PRO A   2      58.817  38.041 -12.508  0.00  0.00    +0.152 C 
ATOM     26  CB  PRO A   2      57.789  36.923 -12.466  0.00  0.00    +0.031 C 
ATOM     27  CG  PRO A   2      58.582  35.688 -12.143  0.00  0.00    +0.024 C 
ATOM     28  CD  PRO A   2      59.821  35.867 -12.980  0.00  0.00    +0.094 C 
ATOM     29  O   GLY A   1      61.030  39.142 -13.758  0.00  0.00    -0.273 OA
BRANCH  23  30
ATOM     30  CA  GLY A   1      61.917  37.016 -14.467  0.00  0.00    +0.170 C 
BRANCH  30  31
ATOM     31  N   GLY A   1      63.074  37.748 -14.900  0.00  0.00    -0.236 NA
ATOM     32  H   GLY A   1      63.081  38.786 -14.839  0.00  0.00    +0.142 HD
ENDBRANCH  30  31
ENDBRANCH  23  30
ENDBRANCH  19  25
ENDBRANCH  18  21
BRANCH  18  33
ATOM     33  CB  THR A   3      62.080  40.609  -9.826  0.00  0.00    +0.137 C 
ATOM     34  CG2 THR A   3      62.551  41.305 -11.074  0.00  0.00    +0.034 C 
BRANCH  33  35
ATOM     35  OG1 THR A   3      62.234  41.439  -8.664  0.00  0.00    -0.382 OA
ATOM     36  HG1 THR A   3      63.179  41.725  -8.587  0.00  0.00    +0.210 HD
ENDBRANCH  33  35
ENDBRANCH  18  33
ENDBRANCH  11  18
ENDBRANCH   7  16
ENDBRANCH   6   9
BRANCH   6  37
ATOM     37  CB  VAL A   5      61.600  46.094  -7.072  0.00  0.00    +0.027 C 
ATOM     38  CG2 VAL A   5      62.068  45.030  -6.087  0.00  0.00    +0.002 C 
ATOM     39  CG1 VAL A   5      62.608  47.246  -7.096  0.00  0.00    +0.002 C 
ENDBRANCH   6  37
ENDBRANCH   2   6
ENDBRANCH   1   4
BRANCH   1  40
ATOM     40  C   ASN A   6      65.727  45.821  -9.529  0.00  0.00    +0.241 C 
ATOM     41  O   ASN A   6      65.714  46.845  -8.845  0.00  0.00    -0.273 OA
ATOM     42  N   ILE A   7      66.655  44.910  -9.318  0.00  0.00    -0.297 N 
ATOM     43  H   ILE A   7      66.715  44.115  -9.985  0.00  0.00    +0.150 HD
BRANCH  42  44
ATOM     44  CA  ILE A   7      67.600  44.942  -8.216  0.00  0.00    +0.149 C 
BRANCH  44  45
ATOM     45  C   ILE A   7      68.985  44.779  -8.811  0.00  0.00    +0.241 C 
ATOM     46  N   ILE A   8      69.865  45.737  -8.557  0.00  0.00    -0.297 N 
ATOM     47  H   ILE A   8      69.555  46.600  -8.066  0.00  0.00    +0.150 HD
ATOM     48  O   ILE A   7      69.254  43.792  -9.517  0.00  0.00    -0.273 OA
BRANCH  46  49
ATOM     49  CA  ILE A   8      71.253  45.602  -8.953  0.00  0.00    +0.149 C 
BRANCH  49  50
ATOM     50  C   ILE A   8      71.940  44.931  -7.746  0.00  0.00    +0.241 C 
ATOM     51  O   ILE A   8      71.959  45.469  -6.632  0.00  0.00    -0.273 OA
ATOM     52  N   GLY A   9      72.487  43.740  -7.967  0.00  0.00    -0.295 N 
ATOM     53  H   GLY A   9      72.414  43.333  -8.921  0.00  0.00    +0.150 HD
BRANCH  52  54
ATOM     54  CA  GLY A   9      73.180  42.979  -6.946  0.00  0.00    +0.176 C 
BRANCH  54  55
ATOM     55  C   GLY A   9      74.654  43.327  -6.914  0.00  0.00    +0.243 C 
ATOM     56  N   ARG A  10      75.402  42.739  -5.993  0.00  0.00    -0.298 N 
ATOM     57  H   ARG A  10      74.981  42.018  -5.373  0.00  0.00    +0.150 HD
ATOM     58  O   GLY A   9      75.188  44.087  -7.737  0.00  0.00    -0.273 OA
BRANCH  56  59
ATOM     59  CA  ARG A  10      76.813  43.092  -5.838  0.00  0.00    +0.137 C 
BRANCH  59  60
ATOM     60  C   ARG A  10      77.683  42.748  -7.036  0.00  0.00    +0.227 C 
ATOM     61  O   ARG A  10      78.743  43.358  -7.284  0.00  0.00    -0.286 OA
ENDBRANCH  59  60
BRANCH  59  62
ATOM     62  CB  ARG A  10      77.384  42.408  -4.600  0.00  0.00    +0.031 C 
BRANCH  62  63
ATOM     63  CG  ARG A  10      76.892  42.991  -3.266  0.00  0.00    +0.045 C 
BRANCH  63  64
ATOM     64  CD  ARG A  10      77.636  42.302  -2.137  0.00  0.00    +0.174 C 
BRANCH  64  65
ATOM     65  NE  ARG A  10      77.286  40.894  -2.108  0.00  0.00    -0.265 N 
ATOM     66  HE  ARG A  10      76.307  40.627  -1.882  0.00  0.00    +0.259 HD
ATOM     67  CZ  ARG A  10      78.174  39.928  -2.361  0.00  0.00    +0.342 C 
ATOM     68  NH2 ARG A  10      77.766  38.671  -2.326  0.00  0.00    -0.292 N 
ATOM     69 HH21 ARG A  10      76.773  38.452  -2.105  0.00  0.00    +0.255 HD
ATOM     70 HH22 ARG A  10      78.438  37.901  -2.519  0.00  0.00    +0.255 HD
ATOM     71  NH1 ARG A  10      79.440  40.187  -2.673  0.00  0.00    -0.292 N 
ATOM     72 HH11 ARG A  10      79.771  41.171  -2.727  0.00  0.00    +0.255 HD
ATOM     73 HH12 ARG A  10      80.099  39.405  -2.863  0.00  0.00    +0.255 HD
ENDBRANCH  64  65
ENDBRANCH  63  64
ENDBRANCH  62  63
ENDBRANCH  59  62
ENDBRANCH  56  59
ENDBRANCH  54  55
ENDBRANCH  52  54
ENDBRANCH  49  50
BRANCH  49  74
ATOM     74  CB  ILE A   8      71.867  47.013  -9.272  0.00  0.00    +0.027 C 
ATOM     75  CG2 ILE A   8      73.298  46.788  -9.691  0.00  0.00    +0.002 C 
BRANCH  74  76
ATOM     76  CG1 ILE A   8      71.118  47.774 -10.389  0.00  0.00    +0.002 C 
ATOM     77  CD1 ILE A   8      70.946  47.021 -11.738  0.00  0.00    +0.000 C 
ENDBRANCH  74  76
ENDBRANCH  49  74
ENDBRANCH  46  49
ENDBRANCH  44  45
BRANCH  44  78
ATOM     78  CB  ILE A   7      67.240  43.769  -7.272  0.00  0.00    +0.027 C 
ATOM     79  CG2 ILE A   7      68.359  43.493  -6.291  0.00  0.00    +0.002 C 
BRANCH  78  80
ATOM     80  CG1 ILE A   7      65.950  44.092  -6.546  0.00  0.00    +0.002 C 
ATOM     81  CD1 ILE A   7      65.314  42.821  -5.960  0.00  0.00    +0.000 C 
ENDBRANCH  78  80
ENDBRANCH  44  78
ENDBRANCH  42  44
ENDBRANCH   1  40
BRANCH   1  82
ATOM     82  CB  ASN A   6      65.005  46.586 -11.767  0.00  0.00    +0.114 C 
BRANCH  82  83
ATOM     83  CG  ASN A   6      64.190  46.489 -13.050  0.00  0.00    +0.222 C 
ATOM     84  OD1 ASN A   6      63.845  45.414 -13.543  0.00  0.00    -0.275 OA
ATOM     85  ND2 ASN A   6      63.864  47.616 -13.664  0.00  0.00    -0.329 N 
ATOM     86 HD21 ASN A   6      64.149  48.530 -13.259  0.00  0.00    +0.145 HD
ATOM     87 HD22 ASN A   6      63.323  47.587 -14.552  0.00  0.00    +0.145 HD
ENDBRANCH  82  83
ENDBRANCH   1  82
TORSDOF 31
REMARK  Name = ../refined-set-2016/1aid/1aid_pocket.pdb
REMARK  204 active torsions:
REMARK  status: ('A' for Active; 'I' for Inactive)
REMARK    1  A    between atoms: _1  and  _3
REMARK    2  A    between atoms: _3  and  _4
REMARK    3  A    between atoms: _3  and  _6
REMARK    4  A    between atoms: _6  and  _7
REMARK    5  A    between atoms: _10  and  _12
REMARK    6  A    between atoms: _12  and  _13
REMARK    7  A    between atoms: _15  and  _17
REMARK    8  A    between atoms: _17  and  _18
REMARK    9  A    between atoms: _21  and  _23
REMARK   10  A    between atoms: _23  and  _24
REMARK   11  A    between atoms: _23  and  _26
REMARK   12  A    between atoms: _26  and  _27
REMARK   13  A    between atoms: _30  and  _32
REMARK   14  A    between atoms: _32  and  _33
REMARK   15  A    between atoms: _32  and  _35
REMARK   16  A    between atoms: _35  and  _36
REMARK   17  A    between atoms: _39  and  _41
REMARK   18  A    between atoms: _41  and  _42
REMARK   19  A    between atoms: _41  and  _44
REMARK   20  A    between atoms: _44  and  _45
REMARK   21  A    between atoms: _48  and  _50
REMARK   22  A    between atoms: _50  and  _51
REMARK   23  A    between atoms: _50  and  _53
REMARK   24  A    between atoms: _56  and  _58
REMARK   25  A    between atoms: _58  and  _59
REMARK   26  A    between atoms: _58  and  _61
REMARK   27  A    between atoms: _61  and  _62
REMARK   28  A    between atoms: _65  and  _67
REMARK   29  A    between atoms: _67  and  _68
REMARK   30  A    between atoms: _67  and  _70
REMARK   31  A    between atoms: _70  and  _71
REMARK   32  A    between atoms: _71  and  _72
REMARK   33  A    between atoms: _72  and  _73
REMARK   34  A    between atoms: _73  and  _74
REMARK   35  A    between atoms: _78  and  _80
REMARK   36  A    between atoms: _80  and  _81
REMARK   37  A    between atoms: _80  and  _83
REMARK   38  A    between atoms: _83  and  _84
REMARK   39  A    between atoms: _84  and  _85
REMARK   40  A    between atoms: _87  and  _89
REMARK   41  A    between atoms: _89  and  _90
REMARK   42  A    between atoms: _89  and  _92
REMARK   43  A    between atoms: _92  and  _93
REMARK   44  A    between atoms: _96  and  _98
REMARK   45  A    between atoms: _98  and  _99
REMARK   46  A    between atoms: _101  and  _103
REMARK   47  A    between atoms: _103  and  _104
REMARK   48  A    between atoms: _106  and  _108
REMARK   49  A    between atoms: _108  and  _109
REMARK   50  A    between atoms: _108  and  _111
REMARK   51  A    between atoms: _111  and  _112
REMARK   52  A    between atoms: _115  and  _117
REMARK   53  A    between atoms: _117  and  _118
REMARK   54  A    between atoms: _120  and  _122
REMARK   55  A    between atoms: _122  and  _123
REMARK   56  A    between atoms: _125  and  _127
REMARK   57  A    between atoms: _127  and  _128
REMARK   58  A    between atoms: _127  and  _130
REMARK   59  A    between atoms: _130  and  _131
REMARK   60  A    between atoms: _137  and  _139
REMARK   61  A    between atoms: _139  and  _140
REMARK   62  A    between atoms: _139  and  _142
REMARK   63  A    between atoms: _142  and  _143
REMARK   64  A    between atoms: _146  and  _148
REMARK   65  A    between atoms: _148  and  _149
REMARK   66  A    between atoms: _148  and  _151
REMARK   67  A    between atoms: _154  and  _156
REMARK   68  A    between atoms: _156  and  _157
REMARK   69  A    between atoms: _156  and  _159
REMARK   70  A    between atoms: _159  and  _160
REMARK   71  A    between atoms: _163  and  _165
REMARK   72  A    between atoms: _165  and  _166
REMARK   73  A    between atoms: _169  and  _170
REMARK   74  A    between atoms: _175  and  _177
REMARK   75  A    between atoms: _177  and  _178
REMARK   76  A    between atoms: _177  and  _180
REMARK   77  A    between atoms: _180  and  _181
REMARK   78  A    between atoms: _185  and  _186
REMARK   79  A    between atoms: _191  and  _193
REMARK   80  A    between atoms: _193  and  _194
REMARK   81  A    between atoms: _193  and  _196
REMARK   82  A    between atoms: _199  and  _201
REMARK   83  A    between atoms: _201  and  _202
REMARK   84  A    between atoms: _201  and  _204
REMARK   85  A    between atoms: _204  and  _205
REMARK   86  A    between atoms: _210  and  _212
REMARK   87  A    between atoms: _212  and  _213
REMARK   88  A    between atoms: _212  and  _215
REMARK   89  A    between atoms: _215  and  _216
REMARK   90  A    between atoms: _219  and  _221
REMARK   91  A    between atoms: _221  and  _222
REMARK   92  A    between atoms: _221  and  _224
REMARK   93  A    between atoms: _224  and  _225
REMARK   94  A    between atoms: _228  and  _230
REMARK   95  A    between atoms: _230  and  _231
REMARK   96  A    between atoms: _233  and  _235
REMARK   97  A    between atoms: _235  and  _236
REMARK   98  A    between atoms: _235  and  _238
REMARK   99  A    between atoms: _238  and  _239
REMARK  100  A    between atoms: _239  and  _240
REMARK  101  A    between atoms: _240  and  _241
REMARK  102  A    between atoms: _250  and  _252
REMARK  103  A    between atoms: _252  and  _253
REMARK  104  A    between atoms: _252  and  _255
REMARK  105  A    between atoms: _255  and  _256
REMARK  106  A    between atoms: _256  and  _257
REMARK  107  A    between atoms: _257  and  _258
REMARK  108  A    between atoms: _267  and  _269
REMARK  109  A    between atoms: _269  and  _270
REMARK  110  A    between atoms: _269  and  _272
REMARK  111  A    between atoms: _272  and  _273
REMARK  112  A    between atoms: _276  and  _278
REMARK  113  A    between atoms: _278  and  _279
REMARK  114  A    between atoms: _281  and  _283
REMARK  115  A    between atoms: _283  and  _284
REMARK  116  A    between atoms: _287  and  _289
REMARK  117  A    between atoms: _289  and  _290
REMARK  118  A    between atoms: _289  and  _292
REMARK  119  A    between atoms: _292  and  _293
REMARK  120  A    between atoms: _296  and  _298
REMARK  121  A    between atoms: _298  and  _299
REMARK  122  A    between atoms: _298  and  _301
REMARK  123  A    between atoms: _301  and  _302
REMARK  124  A    between atoms: _305  and  _307
REMARK  125  A    between atoms: _307  and  _308
REMARK  126  A    between atoms: _307  and  _310
REMARK  127  A    between atoms: _313  and  _315
REMARK  128  A    between atoms: _315  and  _316
REMARK  129  A    between atoms: _315  and  _318
REMARK  130  A    between atoms: _318  and  _319
REMARK  131  A    between atoms: _322  and  _324
REMARK  132  A    between atoms: _324  and  _325
REMARK  133  A    between atoms: _324  and  _327
REMARK  134  A    between atoms: _327  and  _328
REMARK  135  A    between atoms: _328  and  _329
REMARK  136  A    between atoms: _332  and  _334
REMARK  137  A    between atoms: _334  and  _335
REMARK  138  A    between atoms: _334  and  _337
REMARK  139  A    between atoms: _337  and  _338
REMARK  140  A    between atoms: _338  and  _339
REMARK  141  A    between atoms: _341  and  _343
REMARK  142  A    between atoms: _343  and  _344
REMARK  143  A    between atoms: _343  and  _346
REMARK  144  A    between atoms: _346  and  _347
REMARK  145  A    between atoms: _350  and  _352
REMARK  146  A    between atoms: _352  and  _353
REMARK  147  A    between atoms: _355  and  _357
REMARK  148  A    between atoms: _357  and  _358
REMARK  149  A    between atoms: _360  and  _362
REMARK  150  A    between atoms: _362  and  _363
REMARK  151  A    between atoms: _362  and  _365
REMARK  152  A    between atoms: _365  and  _366
REMARK  153  A    between atoms: _369  and  _371
REMARK  154  A    between atoms: _371  and  _372
REMARK  155  A    between atoms: _374  and  _376
REMARK  156  A    between atoms: _376  and  _377
REMARK  157  A    between atoms: _376  and  _379
REMARK  158  A    between atoms: _379  and  _380
REMARK  159  A    between atoms: _386  and  _388
REMARK  160  A    between atoms: _388  and  _389
REMARK  161  A    between atoms: _388  and  _391
REMARK  162  A    between atoms: _391  and  _392
REMARK  163  A    between atoms: _395  and  _397
REMARK  164  A    between atoms: _397  and  _398
REMARK  165  A    between atoms: _397  and  _400
REMARK  166  A    between atoms: _400  and  _401
REMARK  167  A    between atoms: _401  and  _402
REMARK  168  A    between atoms: _402  and  _403
REMARK  169  A    between atoms: _403  and  _404
REMARK  170  A    between atoms: _408  and  _410
REMARK  171  A    between atoms: _410  and  _411
REMARK  172  A    between atoms: _410  and  _413
REMARK  173  A    between atoms: _416  and  _418
REMARK  174  A    between atoms: _418  and  _419
REMARK  175  A    between atoms: _418  and  _421
REMARK  176  A    between atoms: _421  and  _422
REMARK  177  A    between atoms: _422  and  _423
REMARK  178  A    between atoms: _423  and  _424
REMARK  179  A    between atoms: _433  and  _435
REMARK  180  A    between atoms: _435  and  _436
REMARK  181  A    between atoms: _435  and  _438
REMARK  182  A    between atoms: _438  and  _439
REMARK  183  A    between atoms: _442  and  _444
REMARK  184  A    between atoms: _444  and  _445
REMARK  185  A    between atoms: _444  and  _447
REMARK  186  A    between atoms: _450  and  _452
REMARK  187  A    between atoms: _452  and  _453
REMARK  188  A    between atoms: _456  and  _457
REMARK  189  A    between atoms: _462  and  _464
REMARK  190  A    between atoms: _464  and  _465
REMARK  191  A    between atoms: _464  and  _467
REMARK  192  A    between atoms: _467  and  _468
REMARK  193  A    between atoms: _472  and  _473
REMARK  194  A    between atoms: _478  and  _480
REMARK  195  A    between atoms: _480  and  _481
REMARK  196  A    between atoms: _480  and  _483
REMARK  197  A    between atoms: _486  and  _488
REMARK  198  A    between atoms: _488  and  _489
REMARK  199  A    between atoms: _488  and  _491
REMARK  200  A    between atoms: _491  and  _492
REMARK  201  A    between atoms: _497  and  _499
REMARK  202  A    between atoms: _499  and  _500
REMARK  203  A    between atoms: _499  and  _502
REMARK  204  A    between atoms: _502  and  _503
REMARK                            x       y       z     vdW  Elec       q    Type
REMARK                         _______ _______ _______ _____ _____    ______ ____
ROOT
ATOM      1  NE  ARG A   1      75.732  36.749   2.050  0.00  0.00    -0.265 N 
ATOM      2  HE  ARG A   1      75.850  36.331   2.995  0.00  0.00    +0.259 HD
ATOM      3  CZ  ARG A   1      74.496  37.101   1.657  0.00  0.00    +0.342 C 
ATOM      4  NH2 ARG A   1      73.481  36.850   2.488  0.00  0.00    -0.292 N 
ATOM      5 HH21 ARG A   1      73.661  36.396   3.406  0.00  0.00    +0.255 HD
ATOM      6 HH22 ARG A   1      72.511  37.109   2.217  0.00  0.00    +0.255 HD
ATOM      7  NH1 ARG A   1      74.238  37.744   0.506  0.00  0.00    -0.292 N 
ATOM      8 HH11 ARG A   1      73.259  37.990   0.256  0.00  0.00    +0.255 HD
ATOM      9 HH12 ARG A   1      75.017  37.996  -0.135  0.00  0.00    +0.255 HD
ENDROOT
BRANCH   1  10
ATOM     10  CD  ARG A   1      76.904  36.922   1.225  0.00  0.00    +0.174 C 
BRANCH  10  11
ATOM     11  CG  ARG A   1      77.402  38.359   1.038  0.00  0.00    +0.045 C 
BRANCH  11  12
ATOM     12  CB  ARG A   1      78.298  38.966   2.102  0.00  0.00    +0.029 C 
BRANCH  12  13
ATOM     13  CA  ARG A   1      79.031  40.143   1.455  0.00  0.00    +0.133 C 
BRANCH  13  14
ATOM     14  N   ARG A   1      80.226  39.641   0.775  0.00  0.00    -0.239 NA
ATOM     15  H   ARG A   1      80.380  38.613   0.753  0.00  0.00    +0.142 HD
ENDBRANCH  13  14
BRANCH  13  16
ATOM     16  C   ARG A   1      79.426  41.163   2.505  0.00  0.00    +0.224 C 
ATOM     17  O   ARG A   1      80.352  40.843   3.256  0.00  0.00    -0.287 OA
ENDBRANCH  13  16
ENDBRANCH  12  13
ENDBRANCH  11  12
ENDBRANCH  10  11
ENDBRANCH   1  10
TORSDOF 6
REMARK  Name = ../refined-set-2016/1aid/1aid_pocket.pdb
REMARK  204 active torsions:
REMARK  status: ('A' for Active; 'I' for Inactive)
REMARK    1  A    between atoms: _1  and  _3
REMARK    2  A    between atoms: _3  and  _4
REMARK    3  A    between atoms: _3  and  _6
REMARK    4  A    between atoms: _6  and  _7
REMARK    5  A    between atoms: _10  and  _12
REMARK    6  A    between atoms: _12  and  _13
REMARK    7  A    between atoms: _15  and  _17
REMARK    8  A    between atoms: _17  and  _18
REMARK    9  A    between atoms: _21  and  _23
REMARK   10  A    between atoms: _23  and  _24
REMARK   11  A    between atoms: _23  and  _26
REMARK   12  A    between atoms: _26  and  _27
REMARK   13  A    between atoms: _30  and  _32
REMARK   14  A    between atoms: _32  and  _33
REMARK   15  A    between atoms: _32  and  _35
REMARK   16  A    between atoms: _35  and  _36
REMARK   17  A    between atoms: _39  and  _41
REMARK   18  A    between atoms: _41  and  _42
REMARK   19  A    between atoms: _41  and  _44
REMARK   20  A    between atoms: _44  and  _45
REMARK   21  A    between atoms: _48  and  _50
REMARK   22  A    between atoms: _50  and  _51
REMARK   23  A    between atoms: _50  and  _53
REMARK   24  A    between atoms: _56  and  _58
REMARK   25  A    between atoms: _58  and  _59
REMARK   26  A    between atoms: _58  and  _61
REMARK   27  A    between atoms: _61  and  _62
REMARK   28  A    between atoms: _65  and  _67
REMARK   29  A    between atoms: _67  and  _68
REMARK   30  A    between atoms: _67  and  _70
REMARK   31  A    between atoms: _70  and  _71
REMARK   32  A    between atoms: _71  and  _72
REMARK   33  A    between atoms: _72  and  _73
REMARK   34  A    between atoms: _73  and  _74
REMARK   35  A    between atoms: _78  and  _80
REMARK   36  A    between atoms: _80  and  _81
REMARK   37  A    between atoms: _80  and  _83
REMARK   38  A    between atoms: _83  and  _84
REMARK   39  A    between atoms: _84  and  _85
REMARK   40  A    between atoms: _87  and  _89
REMARK   41  A    between atoms: _89  and  _90
REMARK   42  A    between atoms: _89  and  _92
REMARK   43  A    between atoms: _92  and  _93
REMARK   44  A    between atoms: _96  and  _98
REMARK   45  A    between atoms: _98  and  _99
REMARK   46  A    between atoms: _101  and  _103
REMARK   47  A    between atoms: _103  and  _104
REMARK   48  A    between atoms: _106  and  _108
REMARK   49  A    between atoms: _108  and  _109
REMARK   50  A    between atoms: _108  and  _111
REMARK   51  A    between atoms: _111  and  _112
REMARK   52  A    between atoms: _115  and  _117
REMARK   53  A    between atoms: _117  and  _118
REMARK   54  A    between atoms: _120  and  _122
REMARK   55  A    between atoms: _122  and  _123
REMARK   56  A    between atoms: _125  and  _127
REMARK   57  A    between atoms: _127  and  _128
REMARK   58  A    between atoms: _127  and  _130
REMARK   59  A    between atoms: _130  and  _131
REMARK   60  A    between atoms: _137  and  _139
REMARK   61  A    between atoms: _139  and  _140
REMARK   62  A    between atoms: _139  and  _142
REMARK   63  A    between atoms: _142  and  _143
REMARK   64  A    between atoms: _146  and  _148
REMARK   65  A    between atoms: _148  and  _149
REMARK   66  A    between atoms: _148  and  _151
REMARK   67  A    between atoms: _154  and  _156
REMARK   68  A    between atoms: _156  and  _157
REMARK   69  A    between atoms: _156  and  _159
REMARK   70  A    between atoms: _159  and  _160
REMARK   71  A    between atoms: _163  and  _165
REMARK   72  A    between atoms: _165  and  _166
REMARK   73  A    between atoms: _169  and  _170
REMARK   74  A    between atoms: _175  and  _177
REMARK   75  A    between atoms: _177  and  _178
REMARK   76  A    between atoms: _177  and  _180
REMARK   77  A    between atoms: _180  and  _181
REMARK   78  A    between atoms: _185  and  _186
REMARK   79  A    between atoms: _191  and  _193
REMARK   80  A    between atoms: _193  and  _194
REMARK   81  A    between atoms: _193  and  _196
REMARK   82  A    between atoms: _199  and  _201
REMARK   83  A    between atoms: _201  and  _202
REMARK   84  A    between atoms: _201  and  _204
REMARK   85  A    between atoms: _204  and  _205
REMARK   86  A    between atoms: _210  and  _212
REMARK   87  A    between atoms: _212  and  _213
REMARK   88  A    between atoms: _212  and  _215
REMARK   89  A    between atoms: _215  and  _216
REMARK   90  A    between atoms: _219  and  _221
REMARK   91  A    between atoms: _221  and  _222
REMARK   92  A    between atoms: _221  and  _224
REMARK   93  A    between atoms: _224  and  _225
REMARK   94  A    between atoms: _228  and  _230
REMARK   95  A    between atoms: _230  and  _231
REMARK   96  A    between atoms: _233  and  _235
REMARK   97  A    between atoms: _235  and  _236
REMARK   98  A    between atoms: _235  and  _238
REMARK   99  A    between atoms: _238  and  _239
REMARK  100  A    between atoms: _239  and  _240
REMARK  101  A    between atoms: _240  and  _241
REMARK  102  A    between atoms: _250  and  _252
REMARK  103  A    between atoms: _252  and  _253
REMARK  104  A    between atoms: _252  and  _255
REMARK  105  A    between atoms: _255  and  _256
REMARK  106  A    between atoms: _256  and  _257
REMARK  107  A    between atoms: _257  and  _258
REMARK  108  A    between atoms: _267  and  _269
REMARK  109  A    between atoms: _269  and  _270
REMARK  110  A    between atoms: _269  and  _272
REMARK  111  A    between atoms: _272  and  _273
REMARK  112  A    between atoms: _276  and  _278
REMARK  113  A    between atoms: _278  and  _279
REMARK  114  A    between atoms: _281  and  _283
REMARK  115  A    between atoms: _283  and  _284
REMARK  116  A    between atoms: _287  and  _289
REMARK  117  A    between atoms: _289  and  _290
REMARK  118  A    between atoms: _289  and  _292
REMARK  119  A    between atoms: _292  and  _293
REMARK  120  A    between atoms: _296  and  _298
REMARK  121  A    between atoms: _298  and  _299
REMARK  122  A    between atoms: _298  and  _301
REMARK  123  A    between atoms: _301  and  _302
REMARK  124  A    between atoms: _305  and  _307
REMARK  125  A    between atoms: _307  and  _308
REMARK  126  A    between atoms: _307  and  _310
REMARK  127  A    between atoms: _313  and  _315
REMARK  128  A    between atoms: _315  and  _316
REMARK  129  A    between atoms: _315  and  _318
REMARK  130  A    between atoms: _318  and  _319
REMARK  131  A    between atoms: _322  and  _324
REMARK  132  A    between atoms: _324  and  _325
REMARK  133  A    between atoms: _324  and  _327
REMARK  134  A    between atoms: _327  and  _328
REMARK  135  A    between atoms: _328  and  _329
REMARK  136  A    between atoms: _332  and  _334
REMARK  137  A    between atoms: _334  and  _335
REMARK  138  A    between atoms: _334  and  _337
REMARK  139  A    between atoms: _337  and  _338
REMARK  140  A    between atoms: _338  and  _339
REMARK  141  A    between atoms: _341  and  _343
REMARK  142  A    between atoms: _343  and  _344
REMARK  143  A    between atoms: _343  and  _346
REMARK  144  A    between atoms: _346  and  _347
REMARK  145  A    between atoms: _350  and  _352
REMARK  146  A    between atoms: _352  and  _353
REMARK  147  A    between atoms: _355  and  _357
REMARK  148  A    between atoms: _357  and  _358
REMARK  149  A    between atoms: _360  and  _362
REMARK  150  A    between atoms: _362  and  _363
REMARK  151  A    between atoms: _362  and  _365
REMARK  152  A    between atoms: _365  and  _366
REMARK  153  A    between atoms: _369  and  _371
REMARK  154  A    between atoms: _371  and  _372
REMARK  155  A    between atoms: _374  and  _376
REMARK  156  A    between atoms: _376  and  _377
REMARK  157  A    between atoms: _376  and  _379
REMARK  158  A    between atoms: _379  and  _380
REMARK  159  A    between atoms: _386  and  _388
REMARK  160  A    between atoms: _388  and  _389
REMARK  161  A    between atoms: _388  and  _391
REMARK  162  A    between atoms: _391  and  _392
REMARK  163  A    between atoms: _395  and  _397
REMARK  164  A    between atoms: _397  and  _398
REMARK  165  A    between atoms: _397  and  _400
REMARK  166  A    between atoms: _400  and  _401
REMARK  167  A    between atoms: _401  and  _402
REMARK  168  A    between atoms: _402  and  _403
REMARK  169  A    between atoms: _403  and  _404
REMARK  170  A    between atoms: _408  and  _410
REMARK  171  A    between atoms: _410  and  _411
REMARK  172  A    between atoms: _410  and  _413
REMARK  173  A    between atoms: _416  and  _418
REMARK  174  A    between atoms: _418  and  _419
REMARK  175  A    between atoms: _418  and  _421
REMARK  176  A    between atoms: _421  and  _422
REMARK  177  A    between atoms: _422  and  _423
REMARK  178  A    between atoms: _423  and  _424
REMARK  179  A    between atoms: _433  and  _435
REMARK  180  A    between atoms: _435  and  _436
REMARK  181  A    between atoms: _435  and  _438
REMARK  182  A    between atoms: _438  and  _439
REMARK  183  A    between atoms: _442  and  _444
REMARK  184  A    between atoms: _444  and  _445
REMARK  185  A    between atoms: _444  and  _447
REMARK  186  A    between atoms: _450  and  _452
REMARK  187  A    between atoms: _452  and  _453
REMARK  188  A    between atoms: _456  and  _457
REMARK  189  A    between atoms: _462  and  _464
REMARK  190  A    between atoms: _464  and  _465
REMARK  191  A    between atoms: _464  and  _467
REMARK  192  A    between atoms: _467  and  _468
REMARK  193  A    between atoms: _472  and  _473
REMARK  194  A    between atoms: _478  and  _480
REMARK  195  A    between atoms: _480  and  _481
REMARK  196  A    between atoms: _480  and  _483
REMARK  197  A    between atoms: _486  and  _488
REMARK  198  A    between atoms: _488  and  _489
REMARK  199  A    between atoms: _488  and  _491
REMARK  200  A    between atoms: _491  and  _492
REMARK  201  A    between atoms: _497  and  _499
REMARK  202  A    between atoms: _499  and  _500
REMARK  203  A    between atoms: _499  and  _502
REMARK  204  A    between atoms: _502  and  _503
REMARK                            x       y       z     vdW  Elec       q    Type
REMARK                         _______ _______ _______ _____ _____    ______ ____
ROOT
ATOM      1  CA  ASP A   1      71.677  46.004   3.283  0.00  0.00    +0.144 C 
ENDROOT
BRANCH   1   2
ATOM      2  N   ASP A   1      72.503  46.168   4.439  0.00  0.00    -0.239 NA
ATOM      3  H   ASP A   1      72.086  46.508   5.329  0.00  0.00    +0.142 HD
ENDBRANCH   1   2
BRANCH   1   4
ATOM      4  C   ASP A   1      70.935  47.235   2.843  0.00  0.00    +0.225 C 
ATOM      5  O   ASP A   1      69.847  47.494   3.333  0.00  0.00    -0.287 OA
ENDBRANCH   1   4
BRANCH   1   6
ATOM      6  CB  ASP A   1      70.760  44.867   3.633  0.00  0.00    +0.139 C 
BRANCH   6   7
ATOM      7  CG  ASP A   1      69.902  44.304   2.523  0.00  0.00    +0.367 C 
ATOM      8  OD2 ASP A   1      69.371  43.230   2.751  0.00  0.00    -0.246 OA
ATOM      9  OD1 ASP A   1      69.740  44.894   1.454  0.00  0.00    -0.246 OA
ENDBRANCH   6   7
ENDBRANCH   1   6
TORSDOF 4
REMARK  Name = ../refined-set-2016/1aid/1aid_pocket.pdb
REMARK  204 active torsions:
REMARK  status: ('A' for Active; 'I' for Inactive)
REMARK    1  A    between atoms: _1  and  _3
REMARK    2  A    between atoms: _3  and  _4
REMARK    3  A    between atoms: _3  and  _6
REMARK    4  A    between atoms: _6  and  _7
REMARK    5  A    between atoms: _10  and  _12
REMARK    6  A    between atoms: _12  and  _13
REMARK    7  A    between atoms: _15  and  _17
REMARK    8  A    between atoms: _17  and  _18
REMARK    9  A    between atoms: _21  and  _23
REMARK   10  A    between atoms: _23  and  _24
REMARK   11  A    between atoms: _23  and  _26
REMARK   12  A    between atoms: _26  and  _27
REMARK   13  A    between atoms: _30  and  _32
REMARK   14  A    between atoms: _32  and  _33
REMARK   15  A    between atoms: _32  and  _35
REMARK   16  A    between atoms: _35  and  _36
REMARK   17  A    between atoms: _39  and  _41
REMARK   18  A    between atoms: _41  and  _42
REMARK   19  A    between atoms: _41  and  _44
REMARK   20  A    between atoms: _44  and  _45
REMARK   21  A    between atoms: _48  and  _50
REMARK   22  A    between atoms: _50  and  _51
REMARK   23  A    between atoms: _50  and  _53
REMARK   24  A    between atoms: _56  and  _58
REMARK   25  A    between atoms: _58  and  _59
REMARK   26  A    between atoms: _58  and  _61
REMARK   27  A    between atoms: _61  and  _62
REMARK   28  A    between atoms: _65  and  _67
REMARK   29  A    between atoms: _67  and  _68
REMARK   30  A    between atoms: _67  and  _70
REMARK   31  A    between atoms: _70  and  _71
REMARK   32  A    between atoms: _71  and  _72
REMARK   33  A    between atoms: _72  and  _73
REMARK   34  A    between atoms: _73  and  _74
REMARK   35  A    between atoms: _78  and  _80
REMARK   36  A    between atoms: _80  and  _81
REMARK   37  A    between atoms: _80  and  _83
REMARK   38  A    between atoms: _83  and  _84
REMARK   39  A    between atoms: _84  and  _85
REMARK   40  A    between atoms: _87  and  _89
REMARK   41  A    between atoms: _89  and  _90
REMARK   42  A    between atoms: _89  and  _92
REMARK   43  A    between atoms: _92  and  _93
REMARK   44  A    between atoms: _96  and  _98
REMARK   45  A    between atoms: _98  and  _99
REMARK   46  A    between atoms: _101  and  _103
REMARK   47  A    between atoms: _103  and  _104
REMARK   48  A    between atoms: _106  and  _108
REMARK   49  A    between atoms: _108  and  _109
REMARK   50  A    between atoms: _108  and  _111
REMARK   51  A    between atoms: _111  and  _112
REMARK   52  A    between atoms: _115  and  _117
REMARK   53  A    between atoms: _117  and  _118
REMARK   54  A    between atoms: _120  and  _122
REMARK   55  A    between atoms: _122  and  _123
REMARK   56  A    between atoms: _125  and  _127
REMARK   57  A    between atoms: _127  and  _128
REMARK   58  A    between atoms: _127  and  _130
REMARK   59  A    between atoms: _130  and  _131
REMARK   60  A    between atoms: _137  and  _139
REMARK   61  A    between atoms: _139  and  _140
REMARK   62  A    between atoms: _139  and  _142
REMARK   63  A    between atoms: _142  and  _143
REMARK   64  A    between atoms: _146  and  _148
REMARK   65  A    between atoms: _148  and  _149
REMARK   66  A    between atoms: _148  and  _151
REMARK   67  A    between atoms: _154  and  _156
REMARK   68  A    between atoms: _156  and  _157
REMARK   69  A    between atoms: _156  and  _159
REMARK   70  A    between atoms: _159  and  _160
REMARK   71  A    between atoms: _163  and  _165
REMARK   72  A    between atoms: _165  and  _166
REMARK   73  A    between atoms: _169  and  _170
REMARK   74  A    between atoms: _175  and  _177
REMARK   75  A    between atoms: _177  and  _178
REMARK   76  A    between atoms: _177  and  _180
REMARK   77  A    between atoms: _180  and  _181
REMARK   78  A    between atoms: _185  and  _186
REMARK   79  A    between atoms: _191  and  _193
REMARK   80  A    between atoms: _193  and  _194
REMARK   81  A    between atoms: _193  and  _196
REMARK   82  A    between atoms: _199  and  _201
REMARK   83  A    between atoms: _201  and  _202
REMARK   84  A    between atoms: _201  and  _204
REMARK   85  A    between atoms: _204  and  _205
REMARK   86  A    between atoms: _210  and  _212
REMARK   87  A    between atoms: _212  and  _213
REMARK   88  A    between atoms: _212  and  _215
REMARK   89  A    between atoms: _215  and  _216
REMARK   90  A    between atoms: _219  and  _221
REMARK   91  A    between atoms: _221  and  _222
REMARK   92  A    between atoms: _221  and  _224
REMARK   93  A    between atoms: _224  and  _225
REMARK   94  A    between atoms: _228  and  _230
REMARK   95  A    between atoms: _230  and  _231
REMARK   96  A    between atoms: _233  and  _235
REMARK   97  A    between atoms: _235  and  _236
REMARK   98  A    between atoms: _235  and  _238
REMARK   99  A    between atoms: _238  and  _239
REMARK  100  A    between atoms: _239  and  _240
REMARK  101  A    between atoms: _240  and  _241
REMARK  102  A    between atoms: _250  and  _252
REMARK  103  A    between atoms: _252  and  _253
REMARK  104  A    between atoms: _252  and  _255
REMARK  105  A    between atoms: _255  and  _256
REMARK  106  A    between atoms: _256  and  _257
REMARK  107  A    between atoms: _257  and  _258
REMARK  108  A    between atoms: _267  and  _269
REMARK  109  A    between atoms: _269  and  _270
REMARK  110  A    between atoms: _269  and  _272
REMARK  111  A    between atoms: _272  and  _273
REMARK  112  A    between atoms: _276  and  _278
REMARK  113  A    between atoms: _278  and  _279
REMARK  114  A    between atoms: _281  and  _283
REMARK  115  A    between atoms: _283  and  _284
REMARK  116  A    between atoms: _287  and  _289
REMARK  117  A    between atoms: _289  and  _290
REMARK  118  A    between atoms: _289  and  _292
REMARK  119  A    between atoms: _292  and  _293
REMARK  120  A    between atoms: _296  and  _298
REMARK  121  A    between atoms: _298  and  _299
REMARK  122  A    between atoms: _298  and  _301
REMARK  123  A    between atoms: _301  and  _302
REMARK  124  A    between atoms: _305  and  _307
REMARK  125  A    between atoms: _307  and  _308
REMARK  126  A    between atoms: _307  and  _310
REMARK  127  A    between atoms: _313  and  _315
REMARK  128  A    between atoms: _315  and  _316
REMARK  129  A    between atoms: _315  and  _318
REMARK  130  A    between atoms: _318  and  _319
REMARK  131  A    between atoms: _322  and  _324
REMARK  132  A    between atoms: _324  and  _325
REMARK  133  A    between atoms: _324  and  _327
REMARK  134  A    between atoms: _327  and  _328
REMARK  135  A    between atoms: _328  and  _329
REMARK  136  A    between atoms: _332  and  _334
REMARK  137  A    between atoms: _334  and  _335
REMARK  138  A    between atoms: _334  and  _337
REMARK  139  A    between atoms: _337  and  _338
REMARK  140  A    between atoms: _338  and  _339
REMARK  141  A    between atoms: _341  and  _343
REMARK  142  A    between atoms: _343  and  _344
REMARK  143  A    between atoms: _343  and  _346
REMARK  144  A    between atoms: _346  and  _347
REMARK  145  A    between atoms: _350  and  _352
REMARK  146  A    between atoms: _352  and  _353
REMARK  147  A    between atoms: _355  and  _357
REMARK  148  A    between atoms: _357  and  _358
REMARK  149  A    between atoms: _360  and  _362
REMARK  150  A    between atoms: _362  and  _363
REMARK  151  A    between atoms: _362  and  _365
REMARK  152  A    between atoms: _365  and  _366
REMARK  153  A    between atoms: _369  and  _371
REMARK  154  A    between atoms: _371  and  _372
REMARK  155  A    between atoms: _374  and  _376
REMARK  156  A    between atoms: _376  and  _377
REMARK  157  A    between atoms: _376  and  _379
REMARK  158  A    between atoms: _379  and  _380
REMARK  159  A    between atoms: _386  and  _388
REMARK  160  A    between atoms: _388  and  _389
REMARK  161  A    between atoms: _388  and  _391
REMARK  162  A    between atoms: _391  and  _392
REMARK  163  A    between atoms: _395  and  _397
REMARK  164  A    between atoms: _397  and  _398
REMARK  165  A    between atoms: _397  and  _400
REMARK  166  A    between atoms: _400  and  _401
REMARK  167  A    between atoms: _401  and  _402
REMARK  168  A    between atoms: _402  and  _403
REMARK  169  A    between atoms: _403  and  _404
REMARK  170  A    between atoms: _408  and  _410
REMARK  171  A    between atoms: _410  and  _411
REMARK  172  A    between atoms: _410  and  _413
REMARK  173  A    between atoms: _416  and  _418
REMARK  174  A    between atoms: _418  and  _419
REMARK  175  A    between atoms: _418  and  _421
REMARK  176  A    between atoms: _421  and  _422
REMARK  177  A    between atoms: _422  and  _423
REMARK  178  A    between atoms: _423  and  _424
REMARK  179  A    between atoms: _433  and  _435
REMARK  180  A    between atoms: _435  and  _436
REMARK  181  A    between atoms: _435  and  _438
REMARK  182  A    between atoms: _438  and  _439
REMARK  183  A    between atoms: _442  and  _444
REMARK  184  A    between atoms: _444  and  _445
REMARK  185  A    between atoms: _444  and  _447
REMARK  186  A    between atoms: _450  and  _452
REMARK  187  A    between atoms: _452  and  _453
REMARK  188  A    between atoms: _456  and  _457
REMARK  189  A    between atoms: _462  and  _464
REMARK  190  A    between atoms: _464  and  _465
REMARK  191  A    between atoms: _464  and  _467
REMARK  192  A    between atoms: _467  and  _468
REMARK  193  A    between atoms: _472  and  _473
REMARK  194  A    between atoms: _478  and  _480
REMARK  195  A    between atoms: _480  and  _481
REMARK  196  A    between atoms: _480  and  _483
REMARK  197  A    between atoms: _486  and  _488
REMARK  198  A    between atoms: _488  and  _489
REMARK  199  A    between atoms: _488  and  _491
REMARK  200  A    between atoms: _491  and  _492
REMARK  201  A    between atoms: _497  and  _499
REMARK  202  A    between atoms: _499  and  _500
REMARK  203  A    between atoms: _499  and  _502
REMARK  204  A    between atoms: _502  and  _503
REMARK                            x       y       z     vdW  Elec       q    Type
REMARK                         _______ _______ _______ _____ _____    ______ ____
ROOT
ATOM      1  CA  ASP A   3      64.063  49.348   4.581  0.00  0.00    +0.160 C 
ENDROOT
BRANCH   1   4
ATOM      2  C   ALA A   2      65.724  47.829   3.705  0.00  0.00    +0.241 C 
ATOM      3  O   ALA A   2      66.628  48.532   4.147  0.00  0.00    -0.273 OA
ATOM      4  N   ASP A   3      64.453  48.156   3.860  0.00  0.00    -0.297 N 
ATOM      5  H   ASP A   3      63.717  47.543   3.455  0.00  0.00    +0.150 HD
BRANCH   2   6
ATOM      6  CA  ALA A   2      66.027  46.528   2.987  0.00  0.00    +0.149 C 
ATOM      7  CB  ALA A   2      66.505  45.541   4.054  0.00  0.00    +0.031 C 
BRANCH   6   9
ATOM      8  C   GLY A   1      66.696  47.049   0.701  0.00  0.00    +0.240 C 
ATOM      9  N   ALA A   2      67.026  46.740   1.959  0.00  0.00    -0.297 N 
ATOM     10  H   ALA A   2      68.032  46.649   2.208  0.00  0.00    +0.150 HD
ATOM     11  O   GLY A   1      65.531  47.254   0.355  0.00  0.00    -0.274 OA
BRANCH   8  12
ATOM     12  CA  GLY A   1      67.808  47.183  -0.326  0.00  0.00    +0.169 C 
BRANCH  12  13
ATOM     13  N   GLY A   1      69.089  47.539   0.269  0.00  0.00    -0.236 NA
ATOM     14  H   GLY A   1      69.801  46.798   0.429  0.00  0.00    +0.142 HD
ENDBRANCH  12  13
ENDBRANCH   8  12
ENDBRANCH   6   9
ENDBRANCH   2   6
ENDBRANCH   1   4
BRANCH   1  15
ATOM     15  C   ASP A   3      64.232  49.215   6.087  0.00  0.00    +0.241 C 
ATOM     16  O   ASP A   3      64.380  50.226   6.776  0.00  0.00    -0.273 OA
ATOM     17  N   ASP A   4      64.286  47.994   6.618  0.00  0.00    -0.298 N 
ATOM     18  H   ASP A   4      64.321  47.171   5.983  0.00  0.00    +0.150 HD
BRANCH  17  19
ATOM     19  CA  ASP A   4      64.298  47.773   8.052  0.00  0.00    +0.148 C 
BRANCH  19  20
ATOM     20  C   ASP A   4      65.449  46.913   8.564  0.00  0.00    +0.227 C 
ATOM     21  O   ASP A   4      66.189  46.349   7.759  0.00  0.00    -0.286 OA
ENDBRANCH  19  20
BRANCH  19  22
ATOM     22  CB  ASP A   4      62.959  47.145   8.422  0.00  0.00    +0.142 C 
BRANCH  22  23
ATOM     23  CG  ASP A   4      61.760  48.078   8.259  0.00  0.00    +0.367 C 
ATOM     24  OD2 ASP A   4      61.888  49.280   8.491  0.00  0.00    -0.246 OA
ATOM     25  OD1 ASP A   4      60.689  47.601   7.900  0.00  0.00    -0.246 OA
ENDBRANCH  22  23
ENDBRANCH  19  22
ENDBRANCH  17  19
ENDBRANCH   1  15
BRANCH   1  26
ATOM     26  CB  ASP A   3      62.618  49.667   4.264  0.00  0.00    +0.143 C 
BRANCH  26  27
ATOM     27  CG  ASP A   3      62.332  50.000   2.800  0.00  0.00    +0.367 C 
ATOM     28  OD2 ASP A   3      61.198  49.801   2.370  0.00  0.00    -0.246 OA
ATOM     29  OD1 ASP A   3      63.222  50.464   2.086  0.00  0.00    -0.246 OA
ENDBRANCH  26  27
ENDBRANCH   1  26
TORSDOF 12
REMARK  Name = ../refined-set-2016/1aid/1aid_pocket.pdb
REMARK  204 active torsions:
REMARK  status: ('A' for Active; 'I' for Inactive)
REMARK    1  A    between atoms: _1  and  _3
REMARK    2  A    between atoms: _3  and  _4
REMARK    3  A    between atoms: _3  and  _6
REMARK    4  A    between atoms: _6  and  _7
REMARK    5  A    between atoms: _10  and  _12
REMARK    6  A    between atoms: _12  and  _13
REMARK    7  A    between atoms: _15  and  _17
REMARK    8  A    between atoms: _17  and  _18
REMARK    9  A    between atoms: _21  and  _23
REMARK   10  A    between atoms: _23  and  _24
REMARK   11  A    between atoms: _23  and  _26
REMARK   12  A    between atoms: _26  and  _27
REMARK   13  A    between atoms: _30  and  _32
REMARK   14  A    between atoms: _32  and  _33
REMARK   15  A    between atoms: _32  and  _35
REMARK   16  A    between atoms: _35  and  _36
REMARK   17  A    between atoms: _39  and  _41
REMARK   18  A    between atoms: _41  and  _42
REMARK   19  A    between atoms: _41  and  _44
REMARK   20  A    between atoms: _44  and  _45
REMARK   21  A    between atoms: _48  and  _50
REMARK   22  A    between atoms: _50  and  _51
REMARK   23  A    between atoms: _50  and  _53
REMARK   24  A    between atoms: _56  and  _58
REMARK   25  A    between atoms: _58  and  _59
REMARK   26  A    between atoms: _58  and  _61
REMARK   27  A    between atoms: _61  and  _62
REMARK   28  A    between atoms: _65  and  _67
REMARK   29  A    between atoms: _67  and  _68
REMARK   30  A    between atoms: _67  and  _70
REMARK   31  A    between atoms: _70  and  _71
REMARK   32  A    between atoms: _71  and  _72
REMARK   33  A    between atoms: _72  and  _73
REMARK   34  A    between atoms: _73  and  _74
REMARK   35  A    between atoms: _78  and  _80
REMARK   36  A    between atoms: _80  and  _81
REMARK   37  A    between atoms: _80  and  _83
REMARK   38  A    between atoms: _83  and  _84
REMARK   39  A    between atoms: _84  and  _85
REMARK   40  A    between atoms: _87  and  _89
REMARK   41  A    between atoms: _89  and  _90
REMARK   42  A    between atoms: _89  and  _92
REMARK   43  A    between atoms: _92  and  _93
REMARK   44  A    between atoms: _96  and  _98
REMARK   45  A    between atoms: _98  and  _99
REMARK   46  A    between atoms: _101  and  _103
REMARK   47  A    between atoms: _103  and  _104
REMARK   48  A    between atoms: _106  and  _108
REMARK   49  A    between atoms: _108  and  _109
REMARK   50  A    between atoms: _108  and  _111
REMARK   51  A    between atoms: _111  and  _112
REMARK   52  A    between atoms: _115  and  _117
REMARK   53  A    between atoms: _117  and  _118
REMARK   54  A    between atoms: _120  and  _122
REMARK   55  A    between atoms: _122  and  _123
REMARK   56  A    between atoms: _125  and  _127
REMARK   57  A    between atoms: _127  and  _128
REMARK   58  A    between atoms: _127  and  _130
REMARK   59  A    between atoms: _130  and  _131
REMARK   60  A    between atoms: _137  and  _139
REMARK   61  A    between atoms: _139  and  _140
REMARK   62  A    between atoms: _139  and  _142
REMARK   63  A    between atoms: _142  and  _143
REMARK   64  A    between atoms: _146  and  _148
REMARK   65  A    between atoms: _148  and  _149
REMARK   66  A    between atoms: _148  and  _151
REMARK   67  A    between atoms: _154  and  _156
REMARK   68  A    between atoms: _156  and  _157
REMARK   69  A    between atoms: _156  and  _159
REMARK   70  A    between atoms: _159  and  _160
REMARK   71  A    between atoms: _163  and  _165
REMARK   72  A    between atoms: _165  and  _166
REMARK   73  A    between atoms: _169  and  _170
REMARK   74  A    between atoms: _175  and  _177
REMARK   75  A    between atoms: _177  and  _178
REMARK   76  A    between atoms: _177  and  _180
REMARK   77  A    between atoms: _180  and  _181
REMARK   78  A    between atoms: _185  and  _186
REMARK   79  A    between atoms: _191  and  _193
REMARK   80  A    between atoms: _193  and  _194
REMARK   81  A    between atoms: _193  and  _196
REMARK   82  A    between atoms: _199  and  _201
REMARK   83  A    between atoms: _201  and  _202
REMARK   84  A    between atoms: _201  and  _204
REMARK   85  A    between atoms: _204  and  _205
REMARK   86  A    between atoms: _210  and  _212
REMARK   87  A    between atoms: _212  and  _213
REMARK   88  A    between atoms: _212  and  _215
REMARK   89  A    between atoms: _215  and  _216
REMARK   90  A    between atoms: _219  and  _221
REMARK   91  A    between atoms: _221  and  _222
REMARK   92  A    between atoms: _221  and  _224
REMARK   93  A    between atoms: _224  and  _225
REMARK   94  A    between atoms: _228  and  _230
REMARK   95  A    between atoms: _230  and  _231
REMARK   96  A    between atoms: _233  and  _235
REMARK   97  A    between atoms: _235  and  _236
REMARK   98  A    between atoms: _235  and  _238
REMARK   99  A    between atoms: _238  and  _239
REMARK  100  A    between atoms: _239  and  _240
REMARK  101  A    between atoms: _240  and  _241
REMARK  102  A    between atoms: _250  and  _252
REMARK  103  A    between atoms: _252  and  _253
REMARK  104  A    between atoms: _252  and  _255
REMARK  105  A    between atoms: _255  and  _256
REMARK  106  A    between atoms: _256  and  _257
REMARK  107  A    between atoms: _257  and  _258
REMARK  108  A    between atoms: _267  and  _269
REMARK  109  A    between atoms: _269  and  _270
REMARK  110  A    between atoms: _269  and  _272
REMARK  111  A    between atoms: _272  and  _273
REMARK  112  A    between atoms: _276  and  _278
REMARK  113  A    between atoms: _278  and  _279
REMARK  114  A    between atoms: _281  and  _283
REMARK  115  A    between atoms: _283  and  _284
REMARK  116  A    between atoms: _287  and  _289
REMARK  117  A    between atoms: _289  and  _290
REMARK  118  A    between atoms: _289  and  _292
REMARK  119  A    between atoms: _292  and  _293
REMARK  120  A    between atoms: _296  and  _298
REMARK  121  A    between atoms: _298  and  _299
REMARK  122  A    between atoms: _298  and  _301
REMARK  123  A    between atoms: _301  and  _302
REMARK  124  A    between atoms: _305  and  _307
REMARK  125  A    between atoms: _307  and  _308
REMARK  126  A    between atoms: _307  and  _310
REMARK  127  A    between atoms: _313  and  _315
REMARK  128  A    between atoms: _315  and  _316
REMARK  129  A    between atoms: _315  and  _318
REMARK  130  A    between atoms: _318  and  _319
REMARK  131  A    between atoms: _322  and  _324
REMARK  132  A    between atoms: _324  and  _325
REMARK  133  A    between atoms: _324  and  _327
REMARK  134  A    between atoms: _327  and  _328
REMARK  135  A    between atoms: _328  and  _329
REMARK  136  A    between atoms: _332  and  _334
REMARK  137  A    between atoms: _334  and  _335
REMARK  138  A    between atoms: _334  and  _337
REMARK  139  A    between atoms: _337  and  _338
REMARK  140  A    between atoms: _338  and  _339
REMARK  141  A    between atoms: _341  and  _343
REMARK  142  A    between atoms: _343  and  _344
REMARK  143  A    between atoms: _343  and  _346
REMARK  144  A    between atoms: _346  and  _347
REMARK  145  A    between atoms: _350  and  _352
REMARK  146  A    between atoms: _352  and  _353
REMARK  147  A    between atoms: _355  and  _357
REMARK  148  A    between atoms: _357  and  _358
REMARK  149  A    between atoms: _360  and  _362
REMARK  150  A    between atoms: _362  and  _363
REMARK  151  A    between atoms: _362  and  _365
REMARK  152  A    between atoms: _365  and  _366
REMARK  153  A    between atoms: _369  and  _371
REMARK  154  A    between atoms: _371  and  _372
REMARK  155  A    between atoms: _374  and  _376
REMARK  156  A    between atoms: _376  and  _377
REMARK  157  A    between atoms: _376  and  _379
REMARK  158  A    between atoms: _379  and  _380
REMARK  159  A    between atoms: _386  and  _388
REMARK  160  A    between atoms: _388  and  _389
REMARK  161  A    between atoms: _388  and  _391
REMARK  162  A    between atoms: _391  and  _392
REMARK  163  A    between atoms: _395  and  _397
REMARK  164  A    between atoms: _397  and  _398
REMARK  165  A    between atoms: _397  and  _400
REMARK  166  A    between atoms: _400  and  _401
REMARK  167  A    between atoms: _401  and  _402
REMARK  168  A    between atoms: _402  and  _403
REMARK  169  A    between atoms: _403  and  _404
REMARK  170  A    between atoms: _408  and  _410
REMARK  171  A    between atoms: _410  and  _411
REMARK  172  A    between atoms: _410  and  _413
REMARK  173  A    between atoms: _416  and  _418
REMARK  174  A    between atoms: _418  and  _419
REMARK  175  A    between atoms: _418  and  _421
REMARK  176  A    between atoms: _421  and  _422
REMARK  177  A    between atoms: _422  and  _423
REMARK  178  A    between atoms: _423  and  _424
REMARK  179  A    between atoms: _433  and  _435
REMARK  180  A    between atoms: _435  and  _436
REMARK  181  A    between atoms: _435  and  _438
REMARK  182  A    between atoms: _438  and  _439
REMARK  183  A    between atoms: _442  and  _444
REMARK  184  A    between atoms: _444  and  _445
REMARK  185  A    between atoms: _444  and  _447
REMARK  186  A    between atoms: _450  and  _452
REMARK  187  A    between atoms: _452  and  _453
REMARK  188  A    between atoms: _456  and  _457
REMARK  189  A    between atoms: _462  and  _464
REMARK  190  A    between atoms: _464  and  _465
REMARK  191  A    between atoms: _464  and  _467
REMARK  192  A    between atoms: _467  and  _468
REMARK  193  A    between atoms: _472  and  _473
REMARK  194  A    between atoms: _478  and  _480
REMARK  195  A    between atoms: _480  and  _481
REMARK  196  A    between atoms: _480  and  _483
REMARK  197  A    between atoms: _486  and  _488
REMARK  198  A    between atoms: _488  and  _489
REMARK  199  A    between atoms: _488  and  _491
REMARK  200  A    between atoms: _491  and  _492
REMARK  201  A    between atoms: _497  and  _499
REMARK  202  A    between atoms: _499  and  _500
REMARK  203  A    between atoms: _499  and  _502
REMARK  204  A    between atoms: _502  and  _503
REMARK                            x       y       z     vdW  Elec       q    Type
REMARK                         _______ _______ _______ _____ _____    ______ ____
ROOT
ATOM      1  CA  LEU A   2      67.622  40.227  13.488  0.00  0.00    +0.149 C 
ENDROOT
BRANCH   1   3
ATOM      2  C   VAL A   1      66.681  41.440  11.590  0.00  0.00    +0.238 C 
ATOM      3  N   LEU A   2      66.621  41.079  12.874  0.00  0.00    -0.297 N 
ATOM      4  H   LEU A   2      65.829  41.421  13.455  0.00  0.00    +0.150 HD
ATOM      5  O   VAL A   1      67.598  41.085  10.839  0.00  0.00    -0.274 OA
BRANCH   2   6
ATOM      6  CA  VAL A   1      65.583  42.357  11.086  0.00  0.00    +0.145 C 
BRANCH   6   7
ATOM      7  CB  VAL A   1      64.805  41.605   9.955  0.00  0.00    +0.025 C 
ATOM      8  CG2 VAL A   1      63.959  40.536  10.624  0.00  0.00    +0.002 C 
ATOM      9  CG1 VAL A   1      63.881  42.513   9.150  0.00  0.00    +0.002 C 
ENDBRANCH   6   7
BRANCH   6  10
ATOM     10  N   VAL A   1      66.266  43.560  10.624  0.00  0.00    -0.238 NA
ATOM     11  H   VAL A   1      67.031  43.465   9.926  0.00  0.00    +0.142 HD
ENDBRANCH   6  10
ENDBRANCH   2   6
ENDBRANCH   1   3
BRANCH   1  12
ATOM     12  C   LEU A   2      66.986  38.968  14.059  0.00  0.00    +0.241 C 
ATOM     13  O   LEU A   2      65.768  38.845  14.265  0.00  0.00    -0.273 OA
ATOM     14  N   GLU A   3      67.856  37.980  14.224  0.00  0.00    -0.298 N 
ATOM     15  H   GLU A   3      68.844  38.156  13.952  0.00  0.00    +0.150 HD
BRANCH  14  16
ATOM     16  CA  GLU A   3      67.526  36.665  14.759  0.00  0.00    +0.137 C 
BRANCH  16  17
ATOM     17  C   GLU A   3      66.983  36.807  16.169  0.00  0.00    +0.227 C 
ATOM     18  O   GLU A   3      67.183  37.813  16.878  0.00  0.00    -0.286 OA
ENDBRANCH  16  17
BRANCH  16  19
ATOM     19  CB  GLU A   3      68.767  35.765  14.793  0.00  0.00    +0.039 C 
BRANCH  19  20
ATOM     20  CG  GLU A   3      69.860  36.339  15.665  0.00  0.00    +0.116 C 
BRANCH  20  21
ATOM     21  CD  GLU A   3      71.097  35.477  15.766  0.00  0.00    +0.365 C 
ATOM     22  OE2 GLU A   3      71.029  34.421  16.393  0.00  0.00    -0.246 OA
ATOM     23  OE1 GLU A   3      72.137  35.882  15.259  0.00  0.00    -0.246 OA
ENDBRANCH  20  21
ENDBRANCH  19  20
ENDBRANCH  16  19
ENDBRANCH  14  16
ENDBRANCH   1  12
BRANCH   1  24
ATOM     24  CB  LEU A   2      68.335  40.989  14.590  0.00  0.00    +0.029 C 
BRANCH  24  25
ATOM     25  CG  LEU A   2      69.056  42.267  14.180  0.00  0.00    +0.002 C 
ATOM     26  CD2 LEU A   2      69.519  42.975  15.429  0.00  0.00    +0.000 C 
ATOM     27  CD1 LEU A   2      70.239  41.963  13.281  0.00  0.00    +0.000 C 
ENDBRANCH  24  25
ENDBRANCH   1  24
TORSDOF 12
REMARK  Name = ../refined-set-2016/1aid/1aid_pocket.pdb
REMARK  204 active torsions:
REMARK  status: ('A' for Active; 'I' for Inactive)
REMARK    1  A    between atoms: _1  and  _3
REMARK    2  A    between atoms: _3  and  _4
REMARK    3  A    between atoms: _3  and  _6
REMARK    4  A    between atoms: _6  and  _7
REMARK    5  A    between atoms: _10  and  _12
REMARK    6  A    between atoms: _12  and  _13
REMARK    7  A    between atoms: _15  and  _17
REMARK    8  A    between atoms: _17  and  _18
REMARK    9  A    between atoms: _21  and  _23
REMARK   10  A    between atoms: _23  and  _24
REMARK   11  A    between atoms: _23  and  _26
REMARK   12  A    between atoms: _26  and  _27
REMARK   13  A    between atoms: _30  and  _32
REMARK   14  A    between atoms: _32  and  _33
REMARK   15  A    between atoms: _32  and  _35
REMARK   16  A    between atoms: _35  and  _36
REMARK   17  A    between atoms: _39  and  _41
REMARK   18  A    between atoms: _41  and  _42
REMARK   19  A    between atoms: _41  and  _44
REMARK   20  A    between atoms: _44  and  _45
REMARK   21  A    between atoms: _48  and  _50
REMARK   22  A    between atoms: _50  and  _51
REMARK   23  A    between atoms: _50  and  _53
REMARK   24  A    between atoms: _56  and  _58
REMARK   25  A    between atoms: _58  and  _59
REMARK   26  A    between atoms: _58  and  _61
REMARK   27  A    between atoms: _61  and  _62
REMARK   28  A    between atoms: _65  and  _67
REMARK   29  A    between atoms: _67  and  _68
REMARK   30  A    between atoms: _67  and  _70
REMARK   31  A    between atoms: _70  and  _71
REMARK   32  A    between atoms: _71  and  _72
REMARK   33  A    between atoms: _72  and  _73
REMARK   34  A    between atoms: _73  and  _74
REMARK   35  A    between atoms: _78  and  _80
REMARK   36  A    between atoms: _80  and  _81
REMARK   37  A    between atoms: _80  and  _83
REMARK   38  A    between atoms: _83  and  _84
REMARK   39  A    between atoms: _84  and  _85
REMARK   40  A    between atoms: _87  and  _89
REMARK   41  A    between atoms: _89  and  _90
REMARK   42  A    between atoms: _89  and  _92
REMARK   43  A    between atoms: _92  and  _93
REMARK   44  A    between atoms: _96  and  _98
REMARK   45  A    between atoms: _98  and  _99
REMARK   46  A    between atoms: _101  and  _103
REMARK   47  A    between atoms: _103  and  _104
REMARK   48  A    between atoms: _106  and  _108
REMARK   49  A    between atoms: _108  and  _109
REMARK   50  A    between atoms: _108  and  _111
REMARK   51  A    between atoms: _111  and  _112
REMARK   52  A    between atoms: _115  and  _117
REMARK   53  A    between atoms: _117  and  _118
REMARK   54  A    between atoms: _120  and  _122
REMARK   55  A    between atoms: _122  and  _123
REMARK   56  A    between atoms: _125  and  _127
REMARK   57  A    between atoms: _127  and  _128
REMARK   58  A    between atoms: _127  and  _130
REMARK   59  A    between atoms: _130  and  _131
REMARK   60  A    between atoms: _137  and  _139
REMARK   61  A    between atoms: _139  and  _140
REMARK   62  A    between atoms: _139  and  _142
REMARK   63  A    between atoms: _142  and  _143
REMARK   64  A    between atoms: _146  and  _148
REMARK   65  A    between atoms: _148  and  _149
REMARK   66  A    between atoms: _148  and  _151
REMARK   67  A    between atoms: _154  and  _156
REMARK   68  A    between atoms: _156  and  _157
REMARK   69  A    between atoms: _156  and  _159
REMARK   70  A    between atoms: _159  and  _160
REMARK   71  A    between atoms: _163  and  _165
REMARK   72  A    between atoms: _165  and  _166
REMARK   73  A    between atoms: _169  and  _170
REMARK   74  A    between atoms: _175  and  _177
REMARK   75  A    between atoms: _177  and  _178
REMARK   76  A    between atoms: _177  and  _180
REMARK   77  A    between atoms: _180  and  _181
REMARK   78  A    between atoms: _185  and  _186
REMARK   79  A    between atoms: _191  and  _193
REMARK   80  A    between atoms: _193  and  _194
REMARK   81  A    between atoms: _193  and  _196
REMARK   82  A    between atoms: _199  and  _201
REMARK   83  A    between atoms: _201  and  _202
REMARK   84  A    between atoms: _201  and  _204
REMARK   85  A    between atoms: _204  and  _205
REMARK   86  A    between atoms: _210  and  _212
REMARK   87  A    between atoms: _212  and  _213
REMARK   88  A    between atoms: _212  and  _215
REMARK   89  A    between atoms: _215  and  _216
REMARK   90  A    between atoms: _219  and  _221
REMARK   91  A    between atoms: _221  and  _222
REMARK   92  A    between atoms: _221  and  _224
REMARK   93  A    between atoms: _224  and  _225
REMARK   94  A    between atoms: _228  and  _230
REMARK   95  A    between atoms: _230  and  _231
REMARK   96  A    between atoms: _233  and  _235
REMARK   97  A    between atoms: _235  and  _236
REMARK   98  A    between atoms: _235  and  _238
REMARK   99  A    between atoms: _238  and  _239
REMARK  100  A    between atoms: _239  and  _240
REMARK  101  A    between atoms: _240  and  _241
REMARK  102  A    between atoms: _250  and  _252
REMARK  103  A    between atoms: _252  and  _253
REMARK  104  A    between atoms: _252  and  _255
REMARK  105  A    between atoms: _255  and  _256
REMARK  106  A    between atoms: _256  and  _257
REMARK  107  A    between atoms: _257  and  _258
REMARK  108  A    between atoms: _267  and  _269
REMARK  109  A    between atoms: _269  and  _270
REMARK  110  A    between atoms: _269  and  _272
REMARK  111  A    between atoms: _272  and  _273
REMARK  112  A    between atoms: _276  and  _278
REMARK  113  A    between atoms: _278  and  _279
REMARK  114  A    between atoms: _281  and  _283
REMARK  115  A    between atoms: _283  and  _284
REMARK  116  A    between atoms: _287  and  _289
REMARK  117  A    between atoms: _289  and  _290
REMARK  118  A    between atoms: _289  and  _292
REMARK  119  A    between atoms: _292  and  _293
REMARK  120  A    between atoms: _296  and  _298
REMARK  121  A    between atoms: _298  and  _299
REMARK  122  A    between atoms: _298  and  _301
REMARK  123  A    between atoms: _301  and  _302
REMARK  124  A    between atoms: _305  and  _307
REMARK  125  A    between atoms: _307  and  _308
REMARK  126  A    between atoms: _307  and  _310
REMARK  127  A    between atoms: _313  and  _315
REMARK  128  A    between atoms: _315  and  _316
REMARK  129  A    between atoms: _315  and  _318
REMARK  130  A    between atoms: _318  and  _319
REMARK  131  A    between atoms: _322  and  _324
REMARK  132  A    between atoms: _324  and  _325
REMARK  133  A    between atoms: _324  and  _327
REMARK  134  A    between atoms: _327  and  _328
REMARK  135  A    between atoms: _328  and  _329
REMARK  136  A    between atoms: _332  and  _334
REMARK  137  A    between atoms: _334  and  _335
REMARK  138  A    between atoms: _334  and  _337
REMARK  139  A    between atoms: _337  and  _338
REMARK  140  A    between atoms: _338  and  _339
REMARK  141  A    between atoms: _341  and  _343
REMARK  142  A    between atoms: _343  and  _344
REMARK  143  A    between atoms: _343  and  _346
REMARK  144  A    between atoms: _346  and  _347
REMARK  145  A    between atoms: _350  and  _352
REMARK  146  A    between atoms: _352  and  _353
REMARK  147  A    between atoms: _355  and  _357
REMARK  148  A    between atoms: _357  and  _358
REMARK  149  A    between atoms: _360  and  _362
REMARK  150  A    between atoms: _362  and  _363
REMARK  151  A    between atoms: _362  and  _365
REMARK  152  A    between atoms: _365  and  _366
REMARK  153  A    between atoms: _369  and  _371
REMARK  154  A    between atoms: _371  and  _372
REMARK  155  A    between atoms: _374  and  _376
REMARK  156  A    between atoms: _376  and  _377
REMARK  157  A    between atoms: _376  and  _379
REMARK  158  A    between atoms: _379  and  _380
REMARK  159  A    between atoms: _386  and  _388
REMARK  160  A    between atoms: _388  and  _389
REMARK  161  A    between atoms: _388  and  _391
REMARK  162  A    between atoms: _391  and  _392
REMARK  163  A    between atoms: _395  and  _397
REMARK  164  A    between atoms: _397  and  _398
REMARK  165  A    between atoms: _397  and  _400
REMARK  166  A    between atoms: _400  and  _401
REMARK  167  A    between atoms: _401  and  _402
REMARK  168  A    between atoms: _402  and  _403
REMARK  169  A    between atoms: _403  and  _404
REMARK  170  A    between atoms: _408  and  _410
REMARK  171  A    between atoms: _410  and  _411
REMARK  172  A    between atoms: _410  and  _413
REMARK  173  A    between atoms: _416  and  _418
REMARK  174  A    between atoms: _418  and  _419
REMARK  175  A    between atoms: _418  and  _421
REMARK  176  A    between atoms: _421  and  _422
REMARK  177  A    between atoms: _422  and  _423
REMARK  178  A    between atoms: _423  and  _424
REMARK  179  A    between atoms: _433  and  _435
REMARK  180  A    between atoms: _435  and  _436
REMARK  181  A    between atoms: _435  and  _438
REMARK  182  A    between atoms: _438  and  _439
REMARK  183  A    between atoms: _442  and  _444
REMARK  184  A    between atoms: _444  and  _445
REMARK  185  A    between atoms: _444  and  _447
REMARK  186  A    between atoms: _450  and  _452
REMARK  187  A    between atoms: _452  and  _453
REMARK  188  A    between atoms: _456  and  _457
REMARK  189  A    between atoms: _462  and  _464
REMARK  190  A    between atoms: _464  and  _465
REMARK  191  A    between atoms: _464  and  _467
REMARK  192  A    between atoms: _467  and  _468
REMARK  193  A    between atoms: _472  and  _473
REMARK  194  A    between atoms: _478  and  _480
REMARK  195  A    between atoms: _480  and  _481
REMARK  196  A    between atoms: _480  and  _483
REMARK  197  A    between atoms: _486  and  _488
REMARK  198  A    between atoms: _488  and  _489
REMARK  199  A    between atoms: _488  and  _491
REMARK  200  A    between atoms: _491  and  _492
REMARK  201  A    between atoms: _497  and  _499
REMARK  202  A    between atoms: _499  and  _500
REMARK  203  A    between atoms: _499  and  _502
REMARK  204  A    between atoms: _502  and  _503
REMARK                            x       y       z     vdW  Elec       q    Type
REMARK                         _______ _______ _______ _____ _____    ______ ____
ROOT
ATOM      1  C   ILE A   2      57.026  39.681   5.627  0.00  0.00    +0.241 C 
ATOM      2  O   ILE A   2      57.300  38.492   5.811  0.00  0.00    -0.273 OA
ATOM      3  N   GLY A   3      56.452  40.151   4.512  0.00  0.00    -0.295 N 
ATOM      4  H   GLY A   3      56.135  41.141   4.495  0.00  0.00    +0.150 HD
ENDROOT
BRANCH   3   5
ATOM      5  CA  GLY A   3      56.252  39.332   3.319  0.00  0.00    +0.176 C 
BRANCH   5   6
ATOM      6  C   GLY A   3      57.487  39.077   2.479  0.00  0.00    +0.243 C 
ATOM      7  O   GLY A   3      58.487  39.829   2.435  0.00  0.00    -0.273 OA
ATOM      8  N   GLY A   4      57.503  37.922   1.822  0.00  0.00    -0.295 N 
ATOM      9  H   GLY A   4      56.683  37.288   1.905  0.00  0.00    +0.150 HD
BRANCH   8  10
ATOM     10  CA  GLY A   4      58.623  37.511   0.991  0.00  0.00    +0.176 C 
BRANCH  10  11
ATOM     11  C   GLY A   4      58.101  36.665  -0.162  0.00  0.00    +0.243 C 
ATOM     12  O   GLY A   4      56.928  36.779  -0.533  0.00  0.00    -0.273 OA
ATOM     13  N   ILE A   5      58.910  35.751  -0.715  0.00  0.00    -0.298 N 
ATOM     14  H   ILE A   5      59.864  35.602  -0.329  0.00  0.00    +0.150 HD
BRANCH  13  15
ATOM     15  CA  ILE A   5      58.458  34.968  -1.852  0.00  0.00    +0.137 C 
BRANCH  15  16
ATOM     16  CB  ILE A   5      59.659  34.235  -2.509  0.00  0.00    +0.026 C 
ATOM     17  CG2 ILE A   5      59.195  33.331  -3.632  0.00  0.00    +0.002 C 
BRANCH  16  18
ATOM     18  CG1 ILE A   5      60.607  35.258  -3.100  0.00  0.00    +0.002 C 
ATOM     19  CD1 ILE A   5      61.780  34.640  -3.860  0.00  0.00    +0.000 C 
ENDBRANCH  16  18
ENDBRANCH  15  16
BRANCH  15  20
ATOM     20  C   ILE A   5      57.400  33.980  -1.399  0.00  0.00    +0.227 C 
ATOM     21  O   ILE A   5      57.691  33.048  -0.650  0.00  0.00    -0.286 OA
ENDBRANCH  15  20
ENDBRANCH  13  15
ENDBRANCH  10  11
ENDBRANCH   8  10
ENDBRANCH   5   6
ENDBRANCH   3   5
BRANCH   1  22
ATOM     22  CA  ILE A   2      57.113  40.717   6.736  0.00  0.00    +0.148 C 
BRANCH  22  25
ATOM     23  C   MET A   1      55.379  41.007   8.381  0.00  0.00    +0.238 C 
ATOM     24  O   MET A   1      55.291  42.203   8.076  0.00  0.00    -0.274 OA
ATOM     25  N   ILE A   2      56.303  40.234   7.830  0.00  0.00    -0.297 N 
ATOM     26  H   ILE A   2      56.447  39.269   8.189  0.00  0.00    +0.150 HD
BRANCH  23  27
ATOM     27  CA  MET A   1      54.436  40.444   9.420  0.00  0.00    +0.146 C 
BRANCH  27  28
ATOM     28  N   MET A   1      54.340  41.474  10.445  0.00  0.00    -0.238 NA
ATOM     29  H   MET A   1      53.902  42.382  10.190  0.00  0.00    +0.142 HD
ENDBRANCH  27  28
BRANCH  27  30
ATOM     30  CB  MET A   1      53.140  40.185   8.673  0.00  0.00    +0.038 C 
BRANCH  30  31
ATOM     31  CG  MET A   1      51.913  39.809   9.473  0.00  0.00    +0.060 C 
BRANCH  31  32
ATOM     32  SD  MET A   1      52.108  38.249  10.360  0.00  0.00    -0.139 S 
ATOM     33  CE  MET A   1      51.535  37.177   9.080  0.00  0.00    +0.069 C 
ENDBRANCH  31  32
ENDBRANCH  30  31
ENDBRANCH  27  30
ENDBRANCH  23  27
ENDBRANCH  22  25
BRANCH  22  34
ATOM     34  CB  ILE A   2      58.597  40.988   7.202  0.00  0.00    +0.027 C 
ATOM     35  CG2 ILE A   2      58.555  42.345   7.899  0.00  0.00    +0.002 C 
BRANCH  34  36
ATOM     36  CG1 ILE A   2      59.190  39.970   8.156  0.00  0.00    +0.002 C 
ATOM     37  CD1 ILE A   2      60.605  40.376   8.638  0.00  0.00    +0.000 C 
ENDBRANCH  34  36
ENDBRANCH  22  34
ENDBRANCH   1  22
TORSDOF 17
REMARK  Name = ../refined-set-2016/1aid/1aid_pocket.pdb
REMARK  204 active torsions:
REMARK  status: ('A' for Active; 'I' for Inactive)
REMARK    1  A    between atoms: _1  and  _3
REMARK    2  A    between atoms: _3  and  _4
REMARK    3  A    between atoms: _3  and  _6
REMARK    4  A    between atoms: _6  and  _7
REMARK    5  A    between atoms: _10  and  _12
REMARK    6  A    between atoms: _12  and  _13
REMARK    7  A    between atoms: _15  and  _17
REMARK    8  A    between atoms: _17  and  _18
REMARK    9  A    between atoms: _21  and  _23
REMARK   10  A    between atoms: _23  and  _24
REMARK   11  A    between atoms: _23  and  _26
REMARK   12  A    between atoms: _26  and  _27
REMARK   13  A    between atoms: _30  and  _32
REMARK   14  A    between atoms: _32  and  _33
REMARK   15  A    between atoms: _32  and  _35
REMARK   16  A    between atoms: _35  and  _36
REMARK   17  A    between atoms: _39  and  _41
REMARK   18  A    between atoms: _41  and  _42
REMARK   19  A    between atoms: _41  and  _44
REMARK   20  A    between atoms: _44  and  _45
REMARK   21  A    between atoms: _48  and  _50
REMARK   22  A    between atoms: _50  and  _51
REMARK   23  A    between atoms: _50  and  _53
REMARK   24  A    between atoms: _56  and  _58
REMARK   25  A    between atoms: _58  and  _59
REMARK   26  A    between atoms: _58  and  _61
REMARK   27  A    between atoms: _61  and  _62
REMARK   28  A    between atoms: _65  and  _67
REMARK   29  A    between atoms: _67  and  _68
REMARK   30  A    between atoms: _67  and  _70
REMARK   31  A    between atoms: _70  and  _71
REMARK   32  A    between atoms: _71  and  _72
REMARK   33  A    between atoms: _72  and  _73
REMARK   34  A    between atoms: _73  and  _74
REMARK   35  A    between atoms: _78  and  _80
REMARK   36  A    between atoms: _80  and  _81
REMARK   37  A    between atoms: _80  and  _83
REMARK   38  A    between atoms: _83  and  _84
REMARK   39  A    between atoms: _84  and  _85
REMARK   40  A    between atoms: _87  and  _89
REMARK   41  A    between atoms: _89  and  _90
REMARK   42  A    between atoms: _89  and  _92
REMARK   43  A    between atoms: _92  and  _93
REMARK   44  A    between atoms: _96  and  _98
REMARK   45  A    between atoms: _98  and  _99
REMARK   46  A    between atoms: _101  and  _103
REMARK   47  A    between atoms: _103  and  _104
REMARK   48  A    between atoms: _106  and  _108
REMARK   49  A    between atoms: _108  and  _109
REMARK   50  A    between atoms: _108  and  _111
REMARK   51  A    between atoms: _111  and  _112
REMARK   52  A    between atoms: _115  and  _117
REMARK   53  A    between atoms: _117  and  _118
REMARK   54  A    between atoms: _120  and  _122
REMARK   55  A    between atoms: _122  and  _123
REMARK   56  A    between atoms: _125  and  _127
REMARK   57  A    between atoms: _127  and  _128
REMARK   58  A    between atoms: _127  and  _130
REMARK   59  A    between atoms: _130  and  _131
REMARK   60  A    between atoms: _137  and  _139
REMARK   61  A    between atoms: _139  and  _140
REMARK   62  A    between atoms: _139  and  _142
REMARK   63  A    between atoms: _142  and  _143
REMARK   64  A    between atoms: _146  and  _148
REMARK   65  A    between atoms: _148  and  _149
REMARK   66  A    between atoms: _148  and  _151
REMARK   67  A    between atoms: _154  and  _156
REMARK   68  A    between atoms: _156  and  _157
REMARK   69  A    between atoms: _156  and  _159
REMARK   70  A    between atoms: _159  and  _160
REMARK   71  A    between atoms: _163  and  _165
REMARK   72  A    between atoms: _165  and  _166
REMARK   73  A    between atoms: _169  and  _170
REMARK   74  A    between atoms: _175  and  _177
REMARK   75  A    between atoms: _177  and  _178
REMARK   76  A    between atoms: _177  and  _180
REMARK   77  A    between atoms: _180  and  _181
REMARK   78  A    between atoms: _185  and  _186
REMARK   79  A    between atoms: _191  and  _193
REMARK   80  A    between atoms: _193  and  _194
REMARK   81  A    between atoms: _193  and  _196
REMARK   82  A    between atoms: _199  and  _201
REMARK   83  A    between atoms: _201  and  _202
REMARK   84  A    between atoms: _201  and  _204
REMARK   85  A    between atoms: _204  and  _205
REMARK   86  A    between atoms: _210  and  _212
REMARK   87  A    between atoms: _212  and  _213
REMARK   88  A    between atoms: _212  and  _215
REMARK   89  A    between atoms: _215  and  _216
REMARK   90  A    between atoms: _219  and  _221
REMARK   91  A    between atoms: _221  and  _222
REMARK   92  A    between atoms: _221  and  _224
REMARK   93  A    between atoms: _224  and  _225
REMARK   94  A    between atoms: _228  and  _230
REMARK   95  A    between atoms: _230  and  _231
REMARK   96  A    between atoms: _233  and  _235
REMARK   97  A    between atoms: _235  and  _236
REMARK   98  A    between atoms: _235  and  _238
REMARK   99  A    between atoms: _238  and  _239
REMARK  100  A    between atoms: _239  and  _240
REMARK  101  A    between atoms: _240  and  _241
REMARK  102  A    between atoms: _250  and  _252
REMARK  103  A    between atoms: _252  and  _253
REMARK  104  A    between atoms: _252  and  _255
REMARK  105  A    between atoms: _255  and  _256
REMARK  106  A    between atoms: _256  and  _257
REMARK  107  A    between atoms: _257  and  _258
REMARK  108  A    between atoms: _267  and  _269
REMARK  109  A    between atoms: _269  and  _270
REMARK  110  A    between atoms: _269  and  _272
REMARK  111  A    between atoms: _272  and  _273
REMARK  112  A    between atoms: _276  and  _278
REMARK  113  A    between atoms: _278  and  _279
REMARK  114  A    between atoms: _281  and  _283
REMARK  115  A    between atoms: _283  and  _284
REMARK  116  A    between atoms: _287  and  _289
REMARK  117  A    between atoms: _289  and  _290
REMARK  118  A    between atoms: _289  and  _292
REMARK  119  A    between atoms: _292  and  _293
REMARK  120  A    between atoms: _296  and  _298
REMARK  121  A    between atoms: _298  and  _299
REMARK  122  A    between atoms: _298  and  _301
REMARK  123  A    between atoms: _301  and  _302
REMARK  124  A    between atoms: _305  and  _307
REMARK  125  A    between atoms: _307  and  _308
REMARK  126  A    between atoms: _307  and  _310
REMARK  127  A    between atoms: _313  and  _315
REMARK  128  A    between atoms: _315  and  _316
REMARK  129  A    between atoms: _315  and  _318
REMARK  130  A    between atoms: _318  and  _319
REMARK  131  A    between atoms: _322  and  _324
REMARK  132  A    between atoms: _324  and  _325
REMARK  133  A    between atoms: _324  and  _327
REMARK  134  A    between atoms: _327  and  _328
REMARK  135  A    between atoms: _328  and  _329
REMARK  136  A    between atoms: _332  and  _334
REMARK  137  A    between atoms: _334  and  _335
REMARK  138  A    between atoms: _334  and  _337
REMARK  139  A    between atoms: _337  and  _338
REMARK  140  A    between atoms: _338  and  _339
REMARK  141  A    between atoms: _341  and  _343
REMARK  142  A    between atoms: _343  and  _344
REMARK  143  A    between atoms: _343  and  _346
REMARK  144  A    between atoms: _346  and  _347
REMARK  145  A    between atoms: _350  and  _352
REMARK  146  A    between atoms: _352  and  _353
REMARK  147  A    between atoms: _355  and  _357
REMARK  148  A    between atoms: _357  and  _358
REMARK  149  A    between atoms: _360  and  _362
REMARK  150  A    between atoms: _362  and  _363
REMARK  151  A    between atoms: _362  and  _365
REMARK  152  A    between atoms: _365  and  _366
REMARK  153  A    between atoms: _369  and  _371
REMARK  154  A    between atoms: _371  and  _372
REMARK  155  A    between atoms: _374  and  _376
REMARK  156  A    between atoms: _376  and  _377
REMARK  157  A    between atoms: _376  and  _379
REMARK  158  A    between atoms: _379  and  _380
REMARK  159  A    between atoms: _386  and  _388
REMARK  160  A    between atoms: _388  and  _389
REMARK  161  A    between atoms: _388  and  _391
REMARK  162  A    between atoms: _391  and  _392
REMARK  163  A    between atoms: _395  and  _397
REMARK  164  A    between atoms: _397  and  _398
REMARK  165  A    between atoms: _397  and  _400
REMARK  166  A    between atoms: _400  and  _401
REMARK  167  A    between atoms: _401  and  _402
REMARK  168  A    between atoms: _402  and  _403
REMARK  169  A    between atoms: _403  and  _404
REMARK  170  A    between atoms: _408  and  _410
REMARK  171  A    between atoms: _410  and  _411
REMARK  172  A    between atoms: _410  and  _413
REMARK  173  A    between atoms: _416  and  _418
REMARK  174  A    between atoms: _418  and  _419
REMARK  175  A    between atoms: _418  and  _421
REMARK  176  A    between atoms: _421  and  _422
REMARK  177  A    between atoms: _422  and  _423
REMARK  178  A    between atoms: _423  and  _424
REMARK  179  A    between atoms: _433  and  _435
REMARK  180  A    between atoms: _435  and  _436
REMARK  181  A    between atoms: _435  and  _438
REMARK  182  A    between atoms: _438  and  _439
REMARK  183  A    between atoms: _442  and  _444
REMARK  184  A    between atoms: _444  and  _445
REMARK  185  A    between atoms: _444  and  _447
REMARK  186  A    between atoms: _450  and  _452
REMARK  187  A    between atoms: _452  and  _453
REMARK  188  A    between atoms: _456  and  _457
REMARK  189  A    between atoms: _462  and  _464
REMARK  190  A    between atoms: _464  and  _465
REMARK  191  A    between atoms: _464  and  _467
REMARK  192  A    between atoms: _467  and  _468
REMARK  193  A    between atoms: _472  and  _473
REMARK  194  A    between atoms: _478  and  _480
REMARK  195  A    between atoms: _480  and  _481
REMARK  196  A    between atoms: _480  and  _483
REMARK  197  A    between atoms: _486  and  _488
REMARK  198  A    between atoms: _488  and  _489
REMARK  199  A    between atoms: _488  and  _491
REMARK  200  A    between atoms: _491  and  _492
REMARK  201  A    between atoms: _497  and  _499
REMARK  202  A    between atoms: _499  and  _500
REMARK  203  A    between atoms: _499  and  _502
REMARK  204  A    between atoms: _502  and  _503
REMARK                            x       y       z     vdW  Elec       q    Type
REMARK                         _______ _______ _______ _____ _____    ______ ____
ROOT
ATOM      1  CA  LYS A   4      55.874  37.040  11.910  0.00  0.00    +0.149 C 
ENDROOT
BRANCH   1   2
ATOM      2  C   LYS A   4      57.139  37.284  12.726  0.00  0.00    +0.241 C 
ATOM      3  N   VAL A   5      57.326  38.533  13.137  0.00  0.00    -0.297 N 
ATOM      4  H   VAL A   5      56.607  39.243  12.892  0.00  0.00    +0.150 HD
ATOM      5  O   LYS A   4      57.954  36.377  12.949  0.00  0.00    -0.273 OA
BRANCH   3   6
ATOM      6  CA  VAL A   5      58.481  38.963  13.912  0.00  0.00    +0.149 C 
BRANCH   6   7
ATOM      7  C   VAL A   5      57.989  39.859  15.057  0.00  0.00    +0.241 C 
ATOM      8  N   ARG A   6      58.891  40.300  15.941  0.00  0.00    -0.298 N 
ATOM      9  H   ARG A   6      59.885  40.023  15.809  0.00  0.00    +0.150 HD
ATOM     10  O   VAL A   5      56.788  40.168  15.157  0.00  0.00    -0.273 OA
BRANCH   8  11
ATOM     11  CA  ARG A   6      58.557  41.148  17.079  0.00  0.00    +0.137 C 
BRANCH  11  12
ATOM     12  C   ARG A   6      59.216  42.494  16.853  0.00  0.00    +0.227 C 
ATOM     13  O   ARG A   6      60.441  42.610  16.760  0.00  0.00    -0.286 OA
ENDBRANCH  11  12
BRANCH  11  14
ATOM     14  CB  ARG A   6      59.093  40.589  18.385  0.00  0.00    +0.031 C 
BRANCH  14  15
ATOM     15  CG  ARG A   6      58.668  39.168  18.653  0.00  0.00    +0.045 C 
BRANCH  15  16
ATOM     16  CD  ARG A   6      58.845  38.786  20.109  0.00  0.00    +0.174 C 
BRANCH  16  17
ATOM     17  NE  ARG A   6      60.201  38.929  20.607  0.00  0.00    -0.265 N 
ATOM     18  HE  ARG A   6      60.418  39.736  21.226  0.00  0.00    +0.259 HD
ATOM     19  CZ  ARG A   6      61.186  38.073  20.308  0.00  0.00    +0.342 C 
ATOM     20  NH2 ARG A   6      62.387  38.253  20.842  0.00  0.00    -0.292 N 
ATOM     21 HH21 ARG A   6      62.555  39.052  21.485  0.00  0.00    +0.255 HD
ATOM     22 HH22 ARG A   6      63.160  37.595  20.617  0.00  0.00    +0.255 HD
ATOM     23  NH1 ARG A   6      61.010  37.064  19.463  0.00  0.00    -0.292 N 
ATOM     24 HH11 ARG A   6      61.797  36.418  19.253  0.00  0.00    +0.255 HD
ATOM     25 HH12 ARG A   6      60.085  36.920  19.011  0.00  0.00    +0.255 HD
ENDBRANCH  16  17
ENDBRANCH  15  16
ENDBRANCH  14  15
ENDBRANCH  11  14
ENDBRANCH   8  11
ENDBRANCH   6   7
BRANCH   6  26
ATOM     26  CB  VAL A   5      59.529  39.749  13.011  0.00  0.00    +0.027 C 
ATOM     27  CG2 VAL A   5      58.844  40.770  12.129  0.00  0.00    +0.002 C 
ATOM     28  CG1 VAL A   5      60.276  38.789  12.111  0.00  0.00    +0.002 C 
ENDBRANCH   6  26
ENDBRANCH   3   6
ENDBRANCH   1   2
BRANCH   1  30
ATOM     29  C   ILE A   3      56.542  36.601   9.611  0.00  0.00    +0.241 C 
ATOM     30  N   LYS A   4      56.178  36.159  10.810  0.00  0.00    -0.297 N 
ATOM     31  H   LYS A   4      56.109  35.132  10.962  0.00  0.00    +0.150 HD
ATOM     32  O   ILE A   3      56.581  37.794   9.312  0.00  0.00    -0.273 OA
BRANCH  29  33
ATOM     33  CA  ILE A   3      56.804  35.536   8.561  0.00  0.00    +0.149 C 
BRANCH  33  35
ATOM     34  C   PHE A   2      55.446  35.320   6.574  0.00  0.00    +0.241 C 
ATOM     35  N   ILE A   3      56.294  36.033   7.306  0.00  0.00    -0.297 N 
ATOM     36  H   ILE A   3      56.597  36.969   6.968  0.00  0.00    +0.150 HD
ATOM     37  O   PHE A   2      55.131  34.151   6.852  0.00  0.00    -0.273 OA
BRANCH  34  38
ATOM     38  CA  PHE A   2      54.886  36.025   5.350  0.00  0.00    +0.153 C 
BRANCH  38  40
ATOM     39  C   GLY A   1      54.846  35.204   3.036  0.00  0.00    +0.240 C 
ATOM     40  N   PHE A   2      54.516  35.071   4.319  0.00  0.00    -0.297 N 
ATOM     41  H   PHE A   2      53.962  34.237   4.599  0.00  0.00    +0.150 HD
ATOM     42  O   GLY A   1      55.511  36.152   2.605  0.00  0.00    -0.274 OA
BRANCH  39  43
ATOM     43  CA  GLY A   1      54.348  34.106   2.118  0.00  0.00    +0.169 C 
BRANCH  43  44
ATOM     44  N   GLY A   1      54.740  34.289   0.733  0.00  0.00    -0.236 NA
ATOM     45  H   GLY A   1      55.090  35.214   0.410  0.00  0.00    +0.142 HD
ENDBRANCH  43  44
ENDBRANCH  39  43
ENDBRANCH  38  40
BRANCH  38  46
ATOM     46  CB  PHE A   2      53.688  36.833   5.819  0.00  0.00    +0.055 C 
BRANCH  46  47
ATOM     47  CG  PHE A   2      53.160  37.853   4.823  0.00  0.00    -0.020 A 
ATOM     48  CD2 PHE A   2      53.354  39.196   5.077  0.00  0.00    -0.004 A 
ATOM     49  CE2 PHE A   2      52.887  40.123   4.174  0.00  0.00    -0.000 A 
ATOM     50  CZ  PHE A   2      52.233  39.718   3.028  0.00  0.00    -0.000 A 
ATOM     51  CE1 PHE A   2      52.038  38.380   2.779  0.00  0.00    -0.000 A 
ATOM     52  CD1 PHE A   2      52.501  37.445   3.677  0.00  0.00    -0.004 A 
ENDBRANCH  46  47
ENDBRANCH  38  46
ENDBRANCH  34  38
ENDBRANCH  33  35
BRANCH  33  53
ATOM     53  CB  ILE A   3      58.292  35.202   8.349  0.00  0.00    +0.027 C 
ATOM     54  CG2 ILE A   3      59.187  35.415   9.566  0.00  0.00    +0.002 C 
BRANCH  53  55
ATOM     55  CG1 ILE A   3      58.262  33.742   7.908  0.00  0.00    +0.002 C 
ATOM     56  CD1 ILE A   3      59.605  33.072   7.606  0.00  0.00    +0.000 C 
ENDBRANCH  53  55
ENDBRANCH  33  53
ENDBRANCH  29  33
ENDBRANCH   1  30
BRANCH   1  57
ATOM     57  CB  LYS A   4      54.781  36.392  12.749  0.00  0.00    +0.029 C 
BRANCH  57  58
ATOM     58  CG  LYS A   4      54.203  37.360  13.764  0.00  0.00    +0.000 C 
BRANCH  58  59
ATOM     59  CD  LYS A   4      53.236  36.704  14.727  0.00  0.00    -0.024 C 
BRANCH  59  60
ATOM     60  CE  LYS A   4      51.906  36.335  14.103  0.00  0.00    -0.086 C 
BRANCH  60  61
ATOM     61  NZ  LYS A   4      50.895  36.407  15.140  0.00  0.00    +0.380 N 
ATOM     62  HZ1 LYS A   4      51.134  35.741  15.902  0.00  0.00    -0.089 HD
ATOM     63  HZ2 LYS A   4      50.860  37.374  15.521  0.00  0.00    -0.089 HD
ATOM     64  HZ3 LYS A   4      49.969  36.158  14.738  0.00  0.00    -0.089 HD
ENDBRANCH  60  61
ENDBRANCH  59  60
ENDBRANCH  58  59
ENDBRANCH  57  58
ENDBRANCH   1  57
TORSDOF 26
REMARK  Name = ../refined-set-2016/1aid/1aid_pocket.pdb
REMARK  204 active torsions:
REMARK  status: ('A' for Active; 'I' for Inactive)
REMARK    1  A    between atoms: _1  and  _3
REMARK    2  A    between atoms: _3  and  _4
REMARK    3  A    between atoms: _3  and  _6
REMARK    4  A    between atoms: _6  and  _7
REMARK    5  A    between atoms: _10  and  _12
REMARK    6  A    between atoms: _12  and  _13
REMARK    7  A    between atoms: _15  and  _17
REMARK    8  A    between atoms: _17  and  _18
REMARK    9  A    between atoms: _21  and  _23
REMARK   10  A    between atoms: _23  and  _24
REMARK   11  A    between atoms: _23  and  _26
REMARK   12  A    between atoms: _26  and  _27
REMARK   13  A    between atoms: _30  and  _32
REMARK   14  A    between atoms: _32  and  _33
REMARK   15  A    between atoms: _32  and  _35
REMARK   16  A    between atoms: _35  and  _36
REMARK   17  A    between atoms: _39  and  _41
REMARK   18  A    between atoms: _41  and  _42
REMARK   19  A    between atoms: _41  and  _44
REMARK   20  A    between atoms: _44  and  _45
REMARK   21  A    between atoms: _48  and  _50
REMARK   22  A    between atoms: _50  and  _51
REMARK   23  A    between atoms: _50  and  _53
REMARK   24  A    between atoms: _56  and  _58
REMARK   25  A    between atoms: _58  and  _59
REMARK   26  A    between atoms: _58  and  _61
REMARK   27  A    between atoms: _61  and  _62
REMARK   28  A    between atoms: _65  and  _67
REMARK   29  A    between atoms: _67  and  _68
REMARK   30  A    between atoms: _67  and  _70
REMARK   31  A    between atoms: _70  and  _71
REMARK   32  A    between atoms: _71  and  _72
REMARK   33  A    between atoms: _72  and  _73
REMARK   34  A    between atoms: _73  and  _74
REMARK   35  A    between atoms: _78  and  _80
REMARK   36  A    between atoms: _80  and  _81
REMARK   37  A    between atoms: _80  and  _83
REMARK   38  A    between atoms: _83  and  _84
REMARK   39  A    between atoms: _84  and  _85
REMARK   40  A    between atoms: _87  and  _89
REMARK   41  A    between atoms: _89  and  _90
REMARK   42  A    between atoms: _89  and  _92
REMARK   43  A    between atoms: _92  and  _93
REMARK   44  A    between atoms: _96  and  _98
REMARK   45  A    between atoms: _98  and  _99
REMARK   46  A    between atoms: _101  and  _103
REMARK   47  A    between atoms: _103  and  _104
REMARK   48  A    between atoms: _106  and  _108
REMARK   49  A    between atoms: _108  and  _109
REMARK   50  A    between atoms: _108  and  _111
REMARK   51  A    between atoms: _111  and  _112
REMARK   52  A    between atoms: _115  and  _117
REMARK   53  A    between atoms: _117  and  _118
REMARK   54  A    between atoms: _120  and  _122
REMARK   55  A    between atoms: _122  and  _123
REMARK   56  A    between atoms: _125  and  _127
REMARK   57  A    between atoms: _127  and  _128
REMARK   58  A    between atoms: _127  and  _130
REMARK   59  A    between atoms: _130  and  _131
REMARK   60  A    between atoms: _137  and  _139
REMARK   61  A    between atoms: _139  and  _140
REMARK   62  A    between atoms: _139  and  _142
REMARK   63  A    between atoms: _142  and  _143
REMARK   64  A    between atoms: _146  and  _148
REMARK   65  A    between atoms: _148  and  _149
REMARK   66  A    between atoms: _148  and  _151
REMARK   67  A    between atoms: _154  and  _156
REMARK   68  A    between atoms: _156  and  _157
REMARK   69  A    between atoms: _156  and  _159
REMARK   70  A    between atoms: _159  and  _160
REMARK   71  A    between atoms: _163  and  _165
REMARK   72  A    between atoms: _165  and  _166
REMARK   73  A    between atoms: _169  and  _170
REMARK   74  A    between atoms: _175  and  _177
REMARK   75  A    between atoms: _177  and  _178
REMARK   76  A    between atoms: _177  and  _180
REMARK   77  A    between atoms: _180  and  _181
REMARK   78  A    between atoms: _185  and  _186
REMARK   79  A    between atoms: _191  and  _193
REMARK   80  A    between atoms: _193  and  _194
REMARK   81  A    between atoms: _193  and  _196
REMARK   82  A    between atoms: _199  and  _201
REMARK   83  A    between atoms: _201  and  _202
REMARK   84  A    between atoms: _201  and  _204
REMARK   85  A    between atoms: _204  and  _205
REMARK   86  A    between atoms: _210  and  _212
REMARK   87  A    between atoms: _212  and  _213
REMARK   88  A    between atoms: _212  and  _215
REMARK   89  A    between atoms: _215  and  _216
REMARK   90  A    between atoms: _219  and  _221
REMARK   91  A    between atoms: _221  and  _222
REMARK   92  A    between atoms: _221  and  _224
REMARK   93  A    between atoms: _224  and  _225
REMARK   94  A    between atoms: _228  and  _230
REMARK   95  A    between atoms: _230  and  _231
REMARK   96  A    between atoms: _233  and  _235
REMARK   97  A    between atoms: _235  and  _236
REMARK   98  A    between atoms: _235  and  _238
REMARK   99  A    between atoms: _238  and  _239
REMARK  100  A    between atoms: _239  and  _240
REMARK  101  A    between atoms: _240  and  _241
REMARK  102  A    between atoms: _250  and  _252
REMARK  103  A    between atoms: _252  and  _253
REMARK  104  A    between atoms: _252  and  _255
REMARK  105  A    between atoms: _255  and  _256
REMARK  106  A    between atoms: _256  and  _257
REMARK  107  A    between atoms: _257  and  _258
REMARK  108  A    between atoms: _267  and  _269
REMARK  109  A    between atoms: _269  and  _270
REMARK  110  A    between atoms: _269  and  _272
REMARK  111  A    between atoms: _272  and  _273
REMARK  112  A    between atoms: _276  and  _278
REMARK  113  A    between atoms: _278  and  _279
REMARK  114  A    between atoms: _281  and  _283
REMARK  115  A    between atoms: _283  and  _284
REMARK  116  A    between atoms: _287  and  _289
REMARK  117  A    between atoms: _289  and  _290
REMARK  118  A    between atoms: _289  and  _292
REMARK  119  A    between atoms: _292  and  _293
REMARK  120  A    between atoms: _296  and  _298
REMARK  121  A    between atoms: _298  and  _299
REMARK  122  A    between atoms: _298  and  _301
REMARK  123  A    between atoms: _301  and  _302
REMARK  124  A    between atoms: _305  and  _307
REMARK  125  A    between atoms: _307  and  _308
REMARK  126  A    between atoms: _307  and  _310
REMARK  127  A    between atoms: _313  and  _315
REMARK  128  A    between atoms: _315  and  _316
REMARK  129  A    between atoms: _315  and  _318
REMARK  130  A    between atoms: _318  and  _319
REMARK  131  A    between atoms: _322  and  _324
REMARK  132  A    between atoms: _324  and  _325
REMARK  133  A    between atoms: _324  and  _327
REMARK  134  A    between atoms: _327  and  _328
REMARK  135  A    between atoms: _328  and  _329
REMARK  136  A    between atoms: _332  and  _334
REMARK  137  A    between atoms: _334  and  _335
REMARK  138  A    between atoms: _334  and  _337
REMARK  139  A    between atoms: _337  and  _338
REMARK  140  A    between atoms: _338  and  _339
REMARK  141  A    between atoms: _341  and  _343
REMARK  142  A    between atoms: _343  and  _344
REMARK  143  A    between atoms: _343  and  _346
REMARK  144  A    between atoms: _346  and  _347
REMARK  145  A    between atoms: _350  and  _352
REMARK  146  A    between atoms: _352  and  _353
REMARK  147  A    between atoms: _355  and  _357
REMARK  148  A    between atoms: _357  and  _358
REMARK  149  A    between atoms: _360  and  _362
REMARK  150  A    between atoms: _362  and  _363
REMARK  151  A    between atoms: _362  and  _365
REMARK  152  A    between atoms: _365  and  _366
REMARK  153  A    between atoms: _369  and  _371
REMARK  154  A    between atoms: _371  and  _372
REMARK  155  A    between atoms: _374  and  _376
REMARK  156  A    between atoms: _376  and  _377
REMARK  157  A    between atoms: _376  and  _379
REMARK  158  A    between atoms: _379  and  _380
REMARK  159  A    between atoms: _386  and  _388
REMARK  160  A    between atoms: _388  and  _389
REMARK  161  A    between atoms: _388  and  _391
REMARK  162  A    between atoms: _391  and  _392
REMARK  163  A    between atoms: _395  and  _397
REMARK  164  A    between atoms: _397  and  _398
REMARK  165  A    between atoms: _397  and  _400
REMARK  166  A    between atoms: _400  and  _401
REMARK  167  A    between atoms: _401  and  _402
REMARK  168  A    between atoms: _402  and  _403
REMARK  169  A    between atoms: _403  and  _404
REMARK  170  A    between atoms: _408  and  _410
REMARK  171  A    between atoms: _410  and  _411
REMARK  172  A    between atoms: _410  and  _413
REMARK  173  A    between atoms: _416  and  _418
REMARK  174  A    between atoms: _418  and  _419
REMARK  175  A    between atoms: _418  and  _421
REMARK  176  A    between atoms: _421  and  _422
REMARK  177  A    between atoms: _422  and  _423
REMARK  178  A    between atoms: _423  and  _424
REMARK  179  A    between atoms: _433  and  _435
REMARK  180  A    between atoms: _435  and  _436
REMARK  181  A    between atoms: _435  and  _438
REMARK  182  A    between atoms: _438  and  _439
REMARK  183  A    between atoms: _442  and  _444
REMARK  184  A    between atoms: _444  and  _445
REMARK  185  A    between atoms: _444  and  _447
REMARK  186  A    between atoms: _450  and  _452
REMARK  187  A    between atoms: _452  and  _453
REMARK  188  A    between atoms: _456  and  _457
REMARK  189  A    between atoms: _462  and  _464
REMARK  190  A    between atoms: _464  and  _465
REMARK  191  A    between atoms: _464  and  _467
REMARK  192  A    between atoms: _467  and  _468
REMARK  193  A    between atoms: _472  and  _473
REMARK  194  A    between atoms: _478  and  _480
REMARK  195  A    between atoms: _480  and  _481
REMARK  196  A    between atoms: _480  and  _483
REMARK  197  A    between atoms: _486  and  _488
REMARK  198  A    between atoms: _488  and  _489
REMARK  199  A    between atoms: _488  and  _491
REMARK  200  A    between atoms: _491  and  _492
REMARK  201  A    between atoms: _497  and  _499
REMARK  202  A    between atoms: _499  and  _500
REMARK  203  A    between atoms: _499  and  _502
REMARK  204  A    between atoms: _502  and  _503
REMARK                            x       y       z     vdW  Elec       q    Type
REMARK                         _______ _______ _______ _____ _____    ______ ____
ROOT
ATOM      1  C   THR A   5      66.403  34.558   9.719  0.00  0.00    +0.246 C 
ATOM      2  O   THR A   5      67.018  34.089  10.687  0.00  0.00    -0.273 OA
ATOM      3  N   PRO A   6      66.700  34.142   8.488  0.00  0.00    -0.272 N 
ATOM      4  CA  PRO A   6      67.922  33.429   8.139  0.00  0.00    +0.152 C 
ATOM      5  CB  PRO A   6      67.592  32.859   6.791  0.00  0.00    +0.031 C 
ATOM      6  CG  PRO A   6      66.601  33.846   6.198  0.00  0.00    +0.024 C 
ATOM      7  CD  PRO A   6      65.728  34.178   7.390  0.00  0.00    +0.094 C 
ENDROOT
BRANCH   4   8
ATOM      8  C   PRO A   6      69.229  34.208   8.150  0.00  0.00    +0.241 C 
ATOM      9  O   PRO A   6      70.306  33.624   8.054  0.00  0.00    -0.273 OA
ATOM     10  N   VAL A   7      68.999  35.485   7.906  0.00  0.00    -0.297 N 
ATOM     11  H   VAL A   7      68.025  35.839   7.825  0.00  0.00    +0.150 HD
BRANCH  10  12
ATOM     12  CA  VAL A   7      70.108  36.373   7.755  0.00  0.00    +0.149 C 
BRANCH  12  13
ATOM     13  C   VAL A   7      69.704  37.627   8.495  0.00  0.00    +0.241 C 
ATOM     14  N   ASN A   8      70.691  38.099   9.233  0.00  0.00    -0.297 N 
ATOM     15  H   ASN A   8      71.605  37.602   9.237  0.00  0.00    +0.150 HD
ATOM     16  O   VAL A   7      68.548  38.067   8.500  0.00  0.00    -0.273 OA
BRANCH  14  17
ATOM     17  CA  ASN A   8      70.530  39.296  10.039  0.00  0.00    +0.158 C 
BRANCH  17  18
ATOM     18  C   ASN A   8      70.746  40.464   9.099  0.00  0.00    +0.241 C 
ATOM     19  N   ILE A   9      69.721  41.281   8.997  0.00  0.00    -0.298 N 
ATOM     20  H   ILE A   9      68.911  41.123   9.631  0.00  0.00    +0.150 HD
ATOM     21  O   ASN A   8      71.778  40.596   8.440  0.00  0.00    -0.273 OA
BRANCH  19  22
ATOM     22  CA  ILE A   9      69.641  42.385   8.064  0.00  0.00    +0.137 C 
BRANCH  22  23
ATOM     23  C   ILE A   9      69.703  43.689   8.835  0.00  0.00    +0.227 C 
ATOM     24  O   ILE A   9      68.910  43.882   9.767  0.00  0.00    -0.286 OA
ENDBRANCH  22  23
BRANCH  22  25
ATOM     25  CB  ILE A   9      68.291  42.293   7.288  0.00  0.00    +0.026 C 
ATOM     26  CG2 ILE A   9      68.174  43.479   6.362  0.00  0.00    +0.002 C 
BRANCH  25  27
ATOM     27  CG1 ILE A   9      68.178  40.998   6.505  0.00  0.00    +0.002 C 
ATOM     28  CD1 ILE A   9      69.335  40.732   5.519  0.00  0.00    +0.000 C 
ENDBRANCH  25  27
ENDBRANCH  22  25
ENDBRANCH  19  22
ENDBRANCH  17  18
BRANCH  17  29
ATOM     29  CB  ASN A   8      71.554  39.303  11.162  0.00  0.00    +0.114 C 
BRANCH  29  30
ATOM     30  CG  ASN A   8      71.302  38.250  12.235  0.00  0.00    +0.222 C 
ATOM     31  ND2 ASN A   8      72.371  37.740  12.813  0.00  0.00    -0.329 N 
ATOM     32 HD21 ASN A   8      72.266  37.037  13.572  0.00  0.00    +0.145 HD
ATOM     33 HD22 ASN A   8      73.319  38.041  12.510  0.00  0.00    +0.145 HD
ATOM     34  OD1 ASN A   8      70.174  37.892  12.595  0.00  0.00    -0.275 OA
ENDBRANCH  29  30
ENDBRANCH  17  29
ENDBRANCH  14  17
ENDBRANCH  12  13
BRANCH  12  35
ATOM     35  CB  VAL A   7      70.335  36.530   6.218  0.00  0.00    +0.027 C 
ATOM     36  CG2 VAL A   7      71.605  37.344   6.052  0.00  0.00    +0.002 C 
ATOM     37  CG1 VAL A   7      69.130  37.125   5.495  0.00  0.00    +0.002 C 
ENDBRANCH  12  35
ENDBRANCH  10  12
ENDBRANCH   4   8
BRANCH   1  38
ATOM     38  CA  THR A   5      65.258  35.548   9.949  0.00  0.00    +0.176 C 
BRANCH  38  40
ATOM     39  C   PRO A   4      63.776  34.134  11.184  0.00  0.00    +0.241 C 
ATOM     40  N   THR A   5      64.634  35.147  11.187  0.00  0.00    -0.295 N 
ATOM     41  H   THR A   5      64.854  35.646  12.072  0.00  0.00    +0.150 HD
ATOM     42  O   PRO A   4      63.475  33.540  10.140  0.00  0.00    -0.273 OA
BRANCH  39  49
ATOM     43  C   GLY A   3      63.048  35.698  13.894  0.00  0.00    +0.246 C 
ATOM     44  O   GLY A   3      64.283  35.687  13.935  0.00  0.00    -0.273 OA
ATOM     45  N   PRO A   4      62.406  34.840  13.110  0.00  0.00    -0.272 N 
ATOM     46  CD  PRO A   4      60.944  34.744  12.973  0.00  0.00    +0.094 C 
ATOM     47  CG  PRO A   4      60.763  33.506  12.136  0.00  0.00    +0.024 C 
ATOM     48  CB  PRO A   4      61.999  32.711  12.457  0.00  0.00    +0.031 C 
ATOM     49  CA  PRO A   4      63.118  33.738  12.501  0.00  0.00    +0.152 C 
BRANCH  43  50
ATOM     50  CA  GLY A   3      62.261  36.700  14.701  0.00  0.00    +0.176 C 
BRANCH  50  53
ATOM     51  C   VAL A   2      62.454  38.946  15.501  0.00  0.00    +0.241 C 
ATOM     52  O   VAL A   2      61.243  38.913  15.704  0.00  0.00    -0.273 OA
ATOM     53  N   GLY A   3      63.038  37.887  14.972  0.00  0.00    -0.295 N 
ATOM     54  H   GLY A   3      64.054  37.907  14.751  0.00  0.00    +0.150 HD
BRANCH  51  55
ATOM     55  CA  VAL A   2      63.250  40.214  15.789  0.00  0.00    +0.148 C 
BRANCH  55  57
ATOM     56  C   LEU A   1      62.967  42.257  14.453  0.00  0.00    +0.238 C 
ATOM     57  N   VAL A   2      62.486  41.383  15.346  0.00  0.00    -0.297 N 
ATOM     58  H   VAL A   2      61.536  41.540  15.739  0.00  0.00    +0.150 HD
ATOM     59  O   LEU A   1      64.104  42.062  14.008  0.00  0.00    -0.274 OA
BRANCH  56  60
ATOM     60  CA  LEU A   1      62.213  43.521  14.018  0.00  0.00    +0.145 C 
BRANCH  60  61
ATOM     61  N   LEU A   1      63.253  44.539  14.087  0.00  0.00    -0.238 NA
ATOM     62  H   LEU A   1      63.930  44.613  13.301  0.00  0.00    +0.142 HD
ENDBRANCH  60  61
BRANCH  60  63
ATOM     63  CB  LEU A   1      61.710  43.390  12.616  0.00  0.00    +0.026 C 
BRANCH  63  64
ATOM     64  CG  LEU A   1      61.096  44.598  12.016  0.00  0.00    +0.002 C 
ATOM     65  CD2 LEU A   1      59.956  45.010  12.867  0.00  0.00    +0.000 C 
ATOM     66  CD1 LEU A   1      60.533  44.296  10.661  0.00  0.00    +0.000 C 
ENDBRANCH  63  64
ENDBRANCH  60  63
ENDBRANCH  56  60
ENDBRANCH  55  57
BRANCH  55  67
ATOM     67  CB  VAL A   2      63.570  40.349  17.310  0.00  0.00    +0.027 C 
ATOM     68  CG2 VAL A   2      64.281  39.112  17.836  0.00  0.00    +0.002 C 
ATOM     69  CG1 VAL A   2      64.549  41.490  17.534  0.00  0.00    +0.002 C 
ENDBRANCH  55  67
ENDBRANCH  51  55
ENDBRANCH  50  53
ENDBRANCH  43  50
ENDBRANCH  39  49
ENDBRANCH  38  40
BRANCH  38  70
ATOM     70  CB  THR A   5      65.726  37.002  10.117  0.00  0.00    +0.137 C 
ATOM     71  CG2 THR A   5      66.886  37.176  11.076  0.00  0.00    +0.034 C 
BRANCH  70  72
ATOM     72  OG1 THR A   5      66.054  37.432   8.802  0.00  0.00    -0.382 OA
ATOM     73  HG1 THR A   5      66.771  36.855   8.437  0.00  0.00    +0.210 HD
ENDBRANCH  70  72
ENDBRANCH  38  70
ENDBRANCH   1  38
TORSDOF 26
REMARK  Name = ../refined-set-2016/1aid/1aid_pocket.pdb
REMARK  204 active torsions:
REMARK  status: ('A' for Active; 'I' for Inactive)
REMARK    1  A    between atoms: _1  and  _3
REMARK    2  A    between atoms: _3  and  _4
REMARK    3  A    between atoms: _3  and  _6
REMARK    4  A    between atoms: _6  and  _7
REMARK    5  A    between atoms: _10  and  _12
REMARK    6  A    between atoms: _12  and  _13
REMARK    7  A    between atoms: _15  and  _17
REMARK    8  A    between atoms: _17  and  _18
REMARK    9  A    between atoms: _21  and  _23
REMARK   10  A    between atoms: _23  and  _24
REMARK   11  A    between atoms: _23  and  _26
REMARK   12  A    between atoms: _26  and  _27
REMARK   13  A    between atoms: _30  and  _32
REMARK   14  A    between atoms: _32  and  _33
REMARK   15  A    between atoms: _32  and  _35
REMARK   16  A    between atoms: _35  and  _36
REMARK   17  A    between atoms: _39  and  _41
REMARK   18  A    between atoms: _41  and  _42
REMARK   19  A    between atoms: _41  and  _44
REMARK   20  A    between atoms: _44  and  _45
REMARK   21  A    between atoms: _48  and  _50
REMARK   22  A    between atoms: _50  and  _51
REMARK   23  A    between atoms: _50  and  _53
REMARK   24  A    between atoms: _56  and  _58
REMARK   25  A    between atoms: _58  and  _59
REMARK   26  A    between atoms: _58  and  _61
REMARK   27  A    between atoms: _61  and  _62
REMARK   28  A    between atoms: _65  and  _67
REMARK   29  A    between atoms: _67  and  _68
REMARK   30  A    between atoms: _67  and  _70
REMARK   31  A    between atoms: _70  and  _71
REMARK   32  A    between atoms: _71  and  _72
REMARK   33  A    between atoms: _72  and  _73
REMARK   34  A    between atoms: _73  and  _74
REMARK   35  A    between atoms: _78  and  _80
REMARK   36  A    between atoms: _80  and  _81
REMARK   37  A    between atoms: _80  and  _83
REMARK   38  A    between atoms: _83  and  _84
REMARK   39  A    between atoms: _84  and  _85
REMARK   40  A    between atoms: _87  and  _89
REMARK   41  A    between atoms: _89  and  _90
REMARK   42  A    between atoms: _89  and  _92
REMARK   43  A    between atoms: _92  and  _93
REMARK   44  A    between atoms: _96  and  _98
REMARK   45  A    between atoms: _98  and  _99
REMARK   46  A    between atoms: _101  and  _103
REMARK   47  A    between atoms: _103  and  _104
REMARK   48  A    between atoms: _106  and  _108
REMARK   49  A    between atoms: _108  and  _109
REMARK   50  A    between atoms: _108  and  _111
REMARK   51  A    between atoms: _111  and  _112
REMARK   52  A    between atoms: _115  and  _117
REMARK   53  A    between atoms: _117  and  _118
REMARK   54  A    between atoms: _120  and  _122
REMARK   55  A    between atoms: _122  and  _123
REMARK   56  A    between atoms: _125  and  _127
REMARK   57  A    between atoms: _127  and  _128
REMARK   58  A    between atoms: _127  and  _130
REMARK   59  A    between atoms: _130  and  _131
REMARK   60  A    between atoms: _137  and  _139
REMARK   61  A    between atoms: _139  and  _140
REMARK   62  A    between atoms: _139  and  _142
REMARK   63  A    between atoms: _142  and  _143
REMARK   64  A    between atoms: _146  and  _148
REMARK   65  A    between atoms: _148  and  _149
REMARK   66  A    between atoms: _148  and  _151
REMARK   67  A    between atoms: _154  and  _156
REMARK   68  A    between atoms: _156  and  _157
REMARK   69  A    between atoms: _156  and  _159
REMARK   70  A    between atoms: _159  and  _160
REMARK   71  A    between atoms: _163  and  _165
REMARK   72  A    between atoms: _165  and  _166
REMARK   73  A    between atoms: _169  and  _170
REMARK   74  A    between atoms: _175  and  _177
REMARK   75  A    between atoms: _177  and  _178
REMARK   76  A    between atoms: _177  and  _180
REMARK   77  A    between atoms: _180  and  _181
REMARK   78  A    between atoms: _185  and  _186
REMARK   79  A    between atoms: _191  and  _193
REMARK   80  A    between atoms: _193  and  _194
REMARK   81  A    between atoms: _193  and  _196
REMARK   82  A    between atoms: _199  and  _201
REMARK   83  A    between atoms: _201  and  _202
REMARK   84  A    between atoms: _201  and  _204
REMARK   85  A    between atoms: _204  and  _205
REMARK   86  A    between atoms: _210  and  _212
REMARK   87  A    between atoms: _212  and  _213
REMARK   88  A    between atoms: _212  and  _215
REMARK   89  A    between atoms: _215  and  _216
REMARK   90  A    between atoms: _219  and  _221
REMARK   91  A    between atoms: _221  and  _222
REMARK   92  A    between atoms: _221  and  _224
REMARK   93  A    between atoms: _224  and  _225
REMARK   94  A    between atoms: _228  and  _230
REMARK   95  A    between atoms: _230  and  _231
REMARK   96  A    between atoms: _233  and  _235
REMARK   97  A    between atoms: _235  and  _236
REMARK   98  A    between atoms: _235  and  _238
REMARK   99  A    between atoms: _238  and  _239
REMARK  100  A    between atoms: _239  and  _240
REMARK  101  A    between atoms: _240  and  _241
REMARK  102  A    between atoms: _250  and  _252
REMARK  103  A    between atoms: _252  and  _253
REMARK  104  A    between atoms: _252  and  _255
REMARK  105  A    between atoms: _255  and  _256
REMARK  106  A    between atoms: _256  and  _257
REMARK  107  A    between atoms: _257  and  _258
REMARK  108  A    between atoms: _267  and  _269
REMARK  109  A    between atoms: _269  and  _270
REMARK  110  A    between atoms: _269  and  _272
REMARK  111  A    between atoms: _272  and  _273
REMARK  112  A    between atoms: _276  and  _278
REMARK  113  A    between atoms: _278  and  _279
REMARK  114  A    between atoms: _281  and  _283
REMARK  115  A    between atoms: _283  and  _284
REMARK  116  A    between atoms: _287  and  _289
REMARK  117  A    between atoms: _289  and  _290
REMARK  118  A    between atoms: _289  and  _292
REMARK  119  A    between atoms: _292  and  _293
REMARK  120  A    between atoms: _296  and  _298
REMARK  121  A    between atoms: _298  and  _299
REMARK  122  A    between atoms: _298  and  _301
REMARK  123  A    between atoms: _301  and  _302
REMARK  124  A    between atoms: _305  and  _307
REMARK  125  A    between atoms: _307  and  _308
REMARK  126  A    between atoms: _307  and  _310
REMARK  127  A    between atoms: _313  and  _315
REMARK  128  A    between atoms: _315  and  _316
REMARK  129  A    between atoms: _315  and  _318
REMARK  130  A    between atoms: _318  and  _319
REMARK  131  A    between atoms: _322  and  _324
REMARK  132  A    between atoms: _324  and  _325
REMARK  133  A    between atoms: _324  and  _327
REMARK  134  A    between atoms: _327  and  _328
REMARK  135  A    between atoms: _328  and  _329
REMARK  136  A    between atoms: _332  and  _334
REMARK  137  A    between atoms: _334  and  _335
REMARK  138  A    between atoms: _334  and  _337
REMARK  139  A    between atoms: _337  and  _338
REMARK  140  A    between atoms: _338  and  _339
REMARK  141  A    between atoms: _341  and  _343
REMARK  142  A    between atoms: _343  and  _344
REMARK  143  A    between atoms: _343  and  _346
REMARK  144  A    between atoms: _346  and  _347
REMARK  145  A    between atoms: _350  and  _352
REMARK  146  A    between atoms: _352  and  _353
REMARK  147  A    between atoms: _355  and  _357
REMARK  148  A    between atoms: _357  and  _358
REMARK  149  A    between atoms: _360  and  _362
REMARK  150  A    between atoms: _362  and  _363
REMARK  151  A    between atoms: _362  and  _365
REMARK  152  A    between atoms: _365  and  _366
REMARK  153  A    between atoms: _369  and  _371
REMARK  154  A    between atoms: _371  and  _372
REMARK  155  A    between atoms: _374  and  _376
REMARK  156  A    between atoms: _376  and  _377
REMARK  157  A    between atoms: _376  and  _379
REMARK  158  A    between atoms: _379  and  _380
REMARK  159  A    between atoms: _386  and  _388
REMARK  160  A    between atoms: _388  and  _389
REMARK  161  A    between atoms: _388  and  _391
REMARK  162  A    between atoms: _391  and  _392
REMARK  163  A    between atoms: _395  and  _397
REMARK  164  A    between atoms: _397  and  _398
REMARK  165  A    between atoms: _397  and  _400
REMARK  166  A    between atoms: _400  and  _401
REMARK  167  A    between atoms: _401  and  _402
REMARK  168  A    between atoms: _402  and  _403
REMARK  169  A    between atoms: _403  and  _404
REMARK  170  A    between atoms: _408  and  _410
REMARK  171  A    between atoms: _410  and  _411
REMARK  172  A    between atoms: _410  and  _413
REMARK  173  A    between atoms: _416  and  _418
REMARK  174  A    between atoms: _418  and  _419
REMARK  175  A    between atoms: _418  and  _421
REMARK  176  A    between atoms: _421  and  _422
REMARK  177  A    between atoms: _422  and  _423
REMARK  178  A    between atoms: _423  and  _424
REMARK  179  A    between atoms: _433  and  _435
REMARK  180  A    between atoms: _435  and  _436
REMARK  181  A    between atoms: _435  and  _438
REMARK  182  A    between atoms: _438  and  _439
REMARK  183  A    between atoms: _442  and  _444
REMARK  184  A    between atoms: _444  and  _445
REMARK  185  A    between atoms: _444  and  _447
REMARK  186  A    between atoms: _450  and  _452
REMARK  187  A    between atoms: _452  and  _453
REMARK  188  A    between atoms: _456  and  _457
REMARK  189  A    between atoms: _462  and  _464
REMARK  190  A    between atoms: _464  and  _465
REMARK  191  A    between atoms: _464  and  _467
REMARK  192  A    between atoms: _467  and  _468
REMARK  193  A    between atoms: _472  and  _473
REMARK  194  A    between atoms: _478  and  _480
REMARK  195  A    between atoms: _480  and  _481
REMARK  196  A    between atoms: _480  and  _483
REMARK  197  A    between atoms: _486  and  _488
REMARK  198  A    between atoms: _488  and  _489
REMARK  199  A    between atoms: _488  and  _491
REMARK  200  A    between atoms: _491  and  _492
REMARK  201  A    between atoms: _497  and  _499
REMARK  202  A    between atoms: _499  and  _500
REMARK  203  A    between atoms: _499  and  _502
REMARK  204  A    between atoms: _502  and  _503
REMARK                            x       y       z     vdW  Elec       q    Type
REMARK                         _______ _______ _______ _____ _____    ______ ____
ROOT
ATOM      1  O   HOH     1      67.944  43.012  -0.090  0.00  0.00    +0.000 OA
ENDROOT
TORSDOF 0
REMARK  Name = ../refined-set-2016/1aid/1aid_pocket.pdb
REMARK  204 active torsions:
REMARK  status: ('A' for Active; 'I' for Inactive)
REMARK    1  A    between atoms: _1  and  _3
REMARK    2  A    between atoms: _3  and  _4
REMARK    3  A    between atoms: _3  and  _6
REMARK    4  A    between atoms: _6  and  _7
REMARK    5  A    between atoms: _10  and  _12
REMARK    6  A    between atoms: _12  and  _13
REMARK    7  A    between atoms: _15  and  _17
REMARK    8  A    between atoms: _17  and  _18
REMARK    9  A    between atoms: _21  and  _23
REMARK   10  A    between atoms: _23  and  _24
REMARK   11  A    between atoms: _23  and  _26
REMARK   12  A    between atoms: _26  and  _27
REMARK   13  A    between atoms: _30  and  _32
REMARK   14  A    between atoms: _32  and  _33
REMARK   15  A    between atoms: _32  and  _35
REMARK   16  A    between atoms: _35  and  _36
REMARK   17  A    between atoms: _39  and  _41
REMARK   18  A    between atoms: _41  and  _42
REMARK   19  A    between atoms: _41  and  _44
REMARK   20  A    between atoms: _44  and  _45
REMARK   21  A    between atoms: _48  and  _50
REMARK   22  A    between atoms: _50  and  _51
REMARK   23  A    between atoms: _50  and  _53
REMARK   24  A    between atoms: _56  and  _58
REMARK   25  A    between atoms: _58  and  _59
REMARK   26  A    between atoms: _58  and  _61
REMARK   27  A    between atoms: _61  and  _62
REMARK   28  A    between atoms: _65  and  _67
REMARK   29  A    between atoms: _67  and  _68
REMARK   30  A    between atoms: _67  and  _70
REMARK   31  A    between atoms: _70  and  _71
REMARK   32  A    between atoms: _71  and  _72
REMARK   33  A    between atoms: _72  and  _73
REMARK   34  A    between atoms: _73  and  _74
REMARK   35  A    between atoms: _78  and  _80
REMARK   36  A    between atoms: _80  and  _81
REMARK   37  A    between atoms: _80  and  _83
REMARK   38  A    between atoms: _83  and  _84
REMARK   39  A    between atoms: _84  and  _85
REMARK   40  A    between atoms: _87  and  _89
REMARK   41  A    between atoms: _89  and  _90
REMARK   42  A    between atoms: _89  and  _92
REMARK   43  A    between atoms: _92  and  _93
REMARK   44  A    between atoms: _96  and  _98
REMARK   45  A    between atoms: _98  and  _99
REMARK   46  A    between atoms: _101  and  _103
REMARK   47  A    between atoms: _103  and  _104
REMARK   48  A    between atoms: _106  and  _108
REMARK   49  A    between atoms: _108  and  _109
REMARK   50  A    between atoms: _108  and  _111
REMARK   51  A    between atoms: _111  and  _112
REMARK   52  A    between atoms: _115  and  _117
REMARK   53  A    between atoms: _117  and  _118
REMARK   54  A    between atoms: _120  and  _122
REMARK   55  A    between atoms: _122  and  _123
REMARK   56  A    between atoms: _125  and  _127
REMARK   57  A    between atoms: _127  and  _128
REMARK   58  A    between atoms: _127  and  _130
REMARK   59  A    between atoms: _130  and  _131
REMARK   60  A    between atoms: _137  and  _139
REMARK   61  A    between atoms: _139  and  _140
REMARK   62  A    between atoms: _139  and  _142
REMARK   63  A    between atoms: _142  and  _143
REMARK   64  A    between atoms: _146  and  _148
REMARK   65  A    between atoms: _148  and  _149
REMARK   66  A    between atoms: _148  and  _151
REMARK   67  A    between atoms: _154  and  _156
REMARK   68  A    between atoms: _156  and  _157
REMARK   69  A    between atoms: _156  and  _159
REMARK   70  A    between atoms: _159  and  _160
REMARK   71  A    between atoms: _163  and  _165
REMARK   72  A    between atoms: _165  and  _166
REMARK   73  A    between atoms: _169  and  _170
REMARK   74  A    between atoms: _175  and  _177
REMARK   75  A    between atoms: _177  and  _178
REMARK   76  A    between atoms: _177  and  _180
REMARK   77  A    between atoms: _180  and  _181
REMARK   78  A    between atoms: _185  and  _186
REMARK   79  A    between atoms: _191  and  _193
REMARK   80  A    between atoms: _193  and  _194
REMARK   81  A    between atoms: _193  and  _196
REMARK   82  A    between atoms: _199  and  _201
REMARK   83  A    between atoms: _201  and  _202
REMARK   84  A    between atoms: _201  and  _204
REMARK   85  A    between atoms: _204  and  _205
REMARK   86  A    between atoms: _210  and  _212
REMARK   87  A    between atoms: _212  and  _213
REMARK   88  A    between atoms: _212  and  _215
REMARK   89  A    between atoms: _215  and  _216
REMARK   90  A    between atoms: _219  and  _221
REMARK   91  A    between atoms: _221  and  _222
REMARK   92  A    between atoms: _221  and  _224
REMARK   93  A    between atoms: _224  and  _225
REMARK   94  A    between atoms: _228  and  _230
REMARK   95  A    between atoms: _230  and  _231
REMARK   96  A    between atoms: _233  and  _235
REMARK   97  A    between atoms: _235  and  _236
REMARK   98  A    between atoms: _235  and  _238
REMARK   99  A    between atoms: _238  and  _239
REMARK  100  A    between atoms: _239  and  _240
REMARK  101  A    between atoms: _240  and  _241
REMARK  102  A    between atoms: _250  and  _252
REMARK  103  A    between atoms: _252  and  _253
REMARK  104  A    between atoms: _252  and  _255
REMARK  105  A    between atoms: _255  and  _256
REMARK  106  A    between atoms: _256  and  _257
REMARK  107  A    between atoms: _257  and  _258
REMARK  108  A    between atoms: _267  and  _269
REMARK  109  A    between atoms: _269  and  _270
REMARK  110  A    between atoms: _269  and  _272
REMARK  111  A    between atoms: _272  and  _273
REMARK  112  A    between atoms: _276  and  _278
REMARK  113  A    between atoms: _278  and  _279
REMARK  114  A    between atoms: _281  and  _283
REMARK  115  A    between atoms: _283  and  _284
REMARK  116  A    between atoms: _287  and  _289
REMARK  117  A    between atoms: _289  and  _290
REMARK  118  A    between atoms: _289  and  _292
REMARK  119  A    between atoms: _292  and  _293
REMARK  120  A    between atoms: _296  and  _298
REMARK  121  A    between atoms: _298  and  _299
REMARK  122  A    between atoms: _298  and  _301
REMARK  123  A    between atoms: _301  and  _302
REMARK  124  A    between atoms: _305  and  _307
REMARK  125  A    between atoms: _307  and  _308
REMARK  126  A    between atoms: _307  and  _310
REMARK  127  A    between atoms: _313  and  _315
REMARK  128  A    between atoms: _315  and  _316
REMARK  129  A    between atoms: _315  and  _318
REMARK  130  A    between atoms: _318  and  _319
REMARK  131  A    between atoms: _322  and  _324
REMARK  132  A    between atoms: _324  and  _325
REMARK  133  A    between atoms: _324  and  _327
REMARK  134  A    between atoms: _327  and  _328
REMARK  135  A    between atoms: _328  and  _329
REMARK  136  A    between atoms: _332  and  _334
REMARK  137  A    between atoms: _334  and  _335
REMARK  138  A    between atoms: _334  and  _337
REMARK  139  A    between atoms: _337  and  _338
REMARK  140  A    between atoms: _338  and  _339
REMARK  141  A    between atoms: _341  and  _343
REMARK  142  A    between atoms: _343  and  _344
REMARK  143  A    between atoms: _343  and  _346
REMARK  144  A    between atoms: _346  and  _347
REMARK  145  A    between atoms: _350  and  _352
REMARK  146  A    between atoms: _352  and  _353
REMARK  147  A    between atoms: _355  and  _357
REMARK  148  A    between atoms: _357  and  _358
REMARK  149  A    between atoms: _360  and  _362
REMARK  150  A    between atoms: _362  and  _363
REMARK  151  A    between atoms: _362  and  _365
REMARK  152  A    between atoms: _365  and  _366
REMARK  153  A    between atoms: _369  and  _371
REMARK  154  A    between atoms: _371  and  _372
REMARK  155  A    between atoms: _374  and  _376
REMARK  156  A    between atoms: _376  and  _377
REMARK  157  A    between atoms: _376  and  _379
REMARK  158  A    between atoms: _379  and  _380
REMARK  159  A    between atoms: _386  and  _388
REMARK  160  A    between atoms: _388  and  _389
REMARK  161  A    between atoms: _388  and  _391
REMARK  162  A    between atoms: _391  and  _392
REMARK  163  A    between atoms: _395  and  _397
REMARK  164  A    between atoms: _397  and  _398
REMARK  165  A    between atoms: _397  and  _400
REMARK  166  A    between atoms: _400  and  _401
REMARK  167  A    between atoms: _401  and  _402
REMARK  168  A    between atoms: _402  and  _403
REMARK  169  A    between atoms: _403  and  _404
REMARK  170  A    between atoms: _408  and  _410
REMARK  171  A    between atoms: _410  and  _411
REMARK  172  A    between atoms: _410  and  _413
REMARK  173  A    between atoms: _416  and  _418
REMARK  174  A    between atoms: _418  and  _419
REMARK  175  A    between atoms: _418  and  _421
REMARK  176  A    between atoms: _421  and  _422
REMARK  177  A    between atoms: _422  and  _423
REMARK  178  A    between atoms: _423  and  _424
REMARK  179  A    between atoms: _433  and  _435
REMARK  180  A    between atoms: _435  and  _436
REMARK  181  A    between atoms: _435  and  _438
REMARK  182  A    between atoms: _438  and  _439
REMARK  183  A    between atoms: _442  and  _444
REMARK  184  A    between atoms: _444  and  _445
REMARK  185  A    between atoms: _444  and  _447
REMARK  186  A    between atoms: _450  and  _452
REMARK  187  A    between atoms: _452  and  _453
REMARK  188  A    between atoms: _456  and  _457
REMARK  189  A    between atoms: _462  and  _464
REMARK  190  A    between atoms: _464  and  _465
REMARK  191  A    between atoms: _464  and  _467
REMARK  192  A    between atoms: _467  and  _468
REMARK  193  A    between atoms: _472  and  _473
REMARK  194  A    between atoms: _478  and  _480
REMARK  195  A    between atoms: _480  and  _481
REMARK  196  A    between atoms: _480  and  _483
REMARK  197  A    between atoms: _486  and  _488
REMARK  198  A    between atoms: _488  and  _489
REMARK  199  A    between atoms: _488  and  _491
REMARK  200  A    between atoms: _491  and  _492
REMARK  201  A    between atoms: _497  and  _499
REMARK  202  A    between atoms: _499  and  _500
REMARK  203  A    between atoms: _499  and  _502
REMARK  204  A    between atoms: _502  and  _503
REMARK                            x       y       z     vdW  Elec       q    Type
REMARK                         _______ _______ _______ _____ _____    ______ ____
ROOT
ATOM      1  O   HOH     1      73.077  38.278 -11.511  0.00  0.00    +0.000 OA
ENDROOT
TORSDOF 0
REMARK  Name = ../refined-set-2016/1aid/1aid_pocket.pdb
REMARK  204 active torsions:
REMARK  status: ('A' for Active; 'I' for Inactive)
REMARK    1  A    between atoms: _1  and  _3
REMARK    2  A    between atoms: _3  and  _4
REMARK    3  A    between atoms: _3  and  _6
REMARK    4  A    between atoms: _6  and  _7
REMARK    5  A    between atoms: _10  and  _12
REMARK    6  A    between atoms: _12  and  _13
REMARK    7  A    between atoms: _15  and  _17
REMARK    8  A    between atoms: _17  and  _18
REMARK    9  A    between atoms: _21  and  _23
REMARK   10  A    between atoms: _23  and  _24
REMARK   11  A    between atoms: _23  and  _26
REMARK   12  A    between atoms: _26  and  _27
REMARK   13  A    between atoms: _30  and  _32
REMARK   14  A    between atoms: _32  and  _33
REMARK   15  A    between atoms: _32  and  _35
REMARK   16  A    between atoms: _35  and  _36
REMARK   17  A    between atoms: _39  and  _41
REMARK   18  A    between atoms: _41  and  _42
REMARK   19  A    between atoms: _41  and  _44
REMARK   20  A    between atoms: _44  and  _45
REMARK   21  A    between atoms: _48  and  _50
REMARK   22  A    between atoms: _50  and  _51
REMARK   23  A    between atoms: _50  and  _53
REMARK   24  A    between atoms: _56  and  _58
REMARK   25  A    between atoms: _58  and  _59
REMARK   26  A    between atoms: _58  and  _61
REMARK   27  A    between atoms: _61  and  _62
REMARK   28  A    between atoms: _65  and  _67
REMARK   29  A    between atoms: _67  and  _68
REMARK   30  A    between atoms: _67  and  _70
REMARK   31  A    between atoms: _70  and  _71
REMARK   32  A    between atoms: _71  and  _72
REMARK   33  A    between atoms: _72  and  _73
REMARK   34  A    between atoms: _73  and  _74
REMARK   35  A    between atoms: _78  and  _80
REMARK   36  A    between atoms: _80  and  _81
REMARK   37  A    between atoms: _80  and  _83
REMARK   38  A    between atoms: _83  and  _84
REMARK   39  A    between atoms: _84  and  _85
REMARK   40  A    between atoms: _87  and  _89
REMARK   41  A    between atoms: _89  and  _90
REMARK   42  A    between atoms: _89  and  _92
REMARK   43  A    between atoms: _92  and  _93
REMARK   44  A    between atoms: _96  and  _98
REMARK   45  A    between atoms: _98  and  _99
REMARK   46  A    between atoms: _101  and  _103
REMARK   47  A    between atoms: _103  and  _104
REMARK   48  A    between atoms: _106  and  _108
REMARK   49  A    between atoms: _108  and  _109
REMARK   50  A    between atoms: _108  and  _111
REMARK   51  A    between atoms: _111  and  _112
REMARK   52  A    between atoms: _115  and  _117
REMARK   53  A    between atoms: _117  and  _118
REMARK   54  A    between atoms: _120  and  _122
REMARK   55  A    between atoms: _122  and  _123
REMARK   56  A    between atoms: _125  and  _127
REMARK   57  A    between atoms: _127  and  _128
REMARK   58  A    between atoms: _127  and  _130
REMARK   59  A    between atoms: _130  and  _131
REMARK   60  A    between atoms: _137  and  _139
REMARK   61  A    between atoms: _139  and  _140
REMARK   62  A    between atoms: _139  and  _142
REMARK   63  A    between atoms: _142  and  _143
REMARK   64  A    between atoms: _146  and  _148
REMARK   65  A    between atoms: _148  and  _149
REMARK   66  A    between atoms: _148  and  _151
REMARK   67  A    between atoms: _154  and  _156
REMARK   68  A    between atoms: _156  and  _157
REMARK   69  A    between atoms: _156  and  _159
REMARK   70  A    between atoms: _159  and  _160
REMARK   71  A    between atoms: _163  and  _165
REMARK   72  A    between atoms: _165  and  _166
REMARK   73  A    between atoms: _169  and  _170
REMARK   74  A    between atoms: _175  and  _177
REMARK   75  A    between atoms: _177  and  _178
REMARK   76  A    between atoms: _177  and  _180
REMARK   77  A    between atoms: _180  and  _181
REMARK   78  A    between atoms: _185  and  _186
REMARK   79  A    between atoms: _191  and  _193
REMARK   80  A    between atoms: _193  and  _194
REMARK   81  A    between atoms: _193  and  _196
REMARK   82  A    between atoms: _199  and  _201
REMARK   83  A    between atoms: _201  and  _202
REMARK   84  A    between atoms: _201  and  _204
REMARK   85  A    between atoms: _204  and  _205
REMARK   86  A    between atoms: _210  and  _212
REMARK   87  A    between atoms: _212  and  _213
REMARK   88  A    between atoms: _212  and  _215
REMARK   89  A    between atoms: _215  and  _216
REMARK   90  A    between atoms: _219  and  _221
REMARK   91  A    between atoms: _221  and  _222
REMARK   92  A    between atoms: _221  and  _224
REMARK   93  A    between atoms: _224  and  _225
REMARK   94  A    between atoms: _228  and  _230
REMARK   95  A    between atoms: _230  and  _231
REMARK   96  A    between atoms: _233  and  _235
REMARK   97  A    between atoms: _235  and  _236
REMARK   98  A    between atoms: _235  and  _238
REMARK   99  A    between atoms: _238  and  _239
REMARK  100  A    between atoms: _239  and  _240
REMARK  101  A    between atoms: _240  and  _241
REMARK  102  A    between atoms: _250  and  _252
REMARK  103  A    between atoms: _252  and  _253
REMARK  104  A    between atoms: _252  and  _255
REMARK  105  A    between atoms: _255  and  _256
REMARK  106  A    between atoms: _256  and  _257
REMARK  107  A    between atoms: _257  and  _258
REMARK  108  A    between atoms: _267  and  _269
REMARK  109  A    between atoms: _269  and  _270
REMARK  110  A    between atoms: _269  and  _272
REMARK  111  A    between atoms: _272  and  _273
REMARK  112  A    between atoms: _276  and  _278
REMARK  113  A    between atoms: _278  and  _279
REMARK  114  A    between atoms: _281  and  _283
REMARK  115  A    between atoms: _283  and  _284
REMARK  116  A    between atoms: _287  and  _289
REMARK  117  A    between atoms: _289  and  _290
REMARK  118  A    between atoms: _289  and  _292
REMARK  119  A    between atoms: _292  and  _293
REMARK  120  A    between atoms: _296  and  _298
REMARK  121  A    between atoms: _298  and  _299
REMARK  122  A    between atoms: _298  and  _301
REMARK  123  A    between atoms: _301  and  _302
REMARK  124  A    between atoms: _305  and  _307
REMARK  125  A    between atoms: _307  and  _308
REMARK  126  A    between atoms: _307  and  _310
REMARK  127  A    between atoms: _313  and  _315
REMARK  128  A    between atoms: _315  and  _316
REMARK  129  A    between atoms: _315  and  _318
REMARK  130  A    between atoms: _318  and  _319
REMARK  131  A    between atoms: _322  and  _324
REMARK  132  A    between atoms: _324  and  _325
REMARK  133  A    between atoms: _324  and  _327
REMARK  134  A    between atoms: _327  and  _328
REMARK  135  A    between atoms: _328  and  _329
REMARK  136  A    between atoms: _332  and  _334
REMARK  137  A    between atoms: _334  and  _335
REMARK  138  A    between atoms: _334  and  _337
REMARK  139  A    between atoms: _337  and  _338
REMARK  140  A    between atoms: _338  and  _339
REMARK  141  A    between atoms: _341  and  _343
REMARK  142  A    between atoms: _343  and  _344
REMARK  143  A    between atoms: _343  and  _346
REMARK  144  A    between atoms: _346  and  _347
REMARK  145  A    between atoms: _350  and  _352
REMARK  146  A    between atoms: _352  and  _353
REMARK  147  A    between atoms: _355  and  _357
REMARK  148  A    between atoms: _357  and  _358
REMARK  149  A    between atoms: _360  and  _362
REMARK  150  A    between atoms: _362  and  _363
REMARK  151  A    between atoms: _362  and  _365
REMARK  152  A    between atoms: _365  and  _366
REMARK  153  A    between atoms: _369  and  _371
REMARK  154  A    between atoms: _371  and  _372
REMARK  155  A    between atoms: _374  and  _376
REMARK  156  A    between atoms: _376  and  _377
REMARK  157  A    between atoms: _376  and  _379
REMARK  158  A    between atoms: _379  and  _380
REMARK  159  A    between atoms: _386  and  _388
REMARK  160  A    between atoms: _388  and  _389
REMARK  161  A    between atoms: _388  and  _391
REMARK  162  A    between atoms: _391  and  _392
REMARK  163  A    between atoms: _395  and  _397
REMARK  164  A    between atoms: _397  and  _398
REMARK  165  A    between atoms: _397  and  _400
REMARK  166  A    between atoms: _400  and  _401
REMARK  167  A    between atoms: _401  and  _402
REMARK  168  A    between atoms: _402  and  _403
REMARK  169  A    between atoms: _403  and  _404
REMARK  170  A    between atoms: _408  and  _410
REMARK  171  A    between atoms: _410  and  _411
REMARK  172  A    between atoms: _410  and  _413
REMARK  173  A    between atoms: _416  and  _418
REMARK  174  A    between atoms: _418  and  _419
REMARK  175  A    between atoms: _418  and  _421
REMARK  176  A    between atoms: _421  and  _422
REMARK  177  A    between atoms: _422  and  _423
REMARK  178  A    between atoms: _423  and  _424
REMARK  179  A    between atoms: _433  and  _435
REMARK  180  A    between atoms: _435  and  _436
REMARK  181  A    between atoms: _435  and  _438
REMARK  182  A    between atoms: _438  and  _439
REMARK  183  A    between atoms: _442  and  _444
REMARK  184  A    between atoms: _444  and  _445
REMARK  185  A    between atoms: _444  and  _447
REMARK  186  A    between atoms: _450  and  _452
REMARK  187  A    between atoms: _452  and  _453
REMARK  188  A    between atoms: _456  and  _457
REMARK  189  A    between atoms: _462  and  _464
REMARK  190  A    between atoms: _464  and  _465
REMARK  191  A    between atoms: _464  and  _467
REMARK  192  A    between atoms: _467  and  _468
REMARK  193  A    between atoms: _472  and  _473
REMARK  194  A    between atoms: _478  and  _480
REMARK  195  A    between atoms: _480  and  _481
REMARK  196  A    between atoms: _480  and  _483
REMARK  197  A    between atoms: _486  and  _488
REMARK  198  A    between atoms: _488  and  _489
REMARK  199  A    between atoms: _488  and  _491
REMARK  200  A    between atoms: _491  and  _492
REMARK  201  A    between atoms: _497  and  _499
REMARK  202  A    between atoms: _499  and  _500
REMARK  203  A    between atoms: _499  and  _502
REMARK  204  A    between atoms: _502  and  _503
REMARK                            x       y       z     vdW  Elec       q    Type
REMARK                         _______ _______ _______ _____ _____    ______ ____
ROOT
ATOM      1  O   HOH     1      71.098  37.465  -2.682  0.00  0.00    +0.000 OA
ENDROOT
TORSDOF 0
REMARK  Name = ../refined-set-2016/1aid/1aid_pocket.pdb
REMARK  204 active torsions:
REMARK  status: ('A' for Active; 'I' for Inactive)
REMARK    1  A    between atoms: _1  and  _3
REMARK    2  A    between atoms: _3  and  _4
REMARK    3  A    between atoms: _3  and  _6
REMARK    4  A    between atoms: _6  and  _7
REMARK    5  A    between atoms: _10  and  _12
REMARK    6  A    between atoms: _12  and  _13
REMARK    7  A    between atoms: _15  and  _17
REMARK    8  A    between atoms: _17  and  _18
REMARK    9  A    between atoms: _21  and  _23
REMARK   10  A    between atoms: _23  and  _24
REMARK   11  A    between atoms: _23  and  _26
REMARK   12  A    between atoms: _26  and  _27
REMARK   13  A    between atoms: _30  and  _32
REMARK   14  A    between atoms: _32  and  _33
REMARK   15  A    between atoms: _32  and  _35
REMARK   16  A    between atoms: _35  and  _36
REMARK   17  A    between atoms: _39  and  _41
REMARK   18  A    between atoms: _41  and  _42
REMARK   19  A    between atoms: _41  and  _44
REMARK   20  A    between atoms: _44  and  _45
REMARK   21  A    between atoms: _48  and  _50
REMARK   22  A    between atoms: _50  and  _51
REMARK   23  A    between atoms: _50  and  _53
REMARK   24  A    between atoms: _56  and  _58
REMARK   25  A    between atoms: _58  and  _59
REMARK   26  A    between atoms: _58  and  _61
REMARK   27  A    between atoms: _61  and  _62
REMARK   28  A    between atoms: _65  and  _67
REMARK   29  A    between atoms: _67  and  _68
REMARK   30  A    between atoms: _67  and  _70
REMARK   31  A    between atoms: _70  and  _71
REMARK   32  A    between atoms: _71  and  _72
REMARK   33  A    between atoms: _72  and  _73
REMARK   34  A    between atoms: _73  and  _74
REMARK   35  A    between atoms: _78  and  _80
REMARK   36  A    between atoms: _80  and  _81
REMARK   37  A    between atoms: _80  and  _83
REMARK   38  A    between atoms: _83  and  _84
REMARK   39  A    between atoms: _84  and  _85
REMARK   40  A    between atoms: _87  and  _89
REMARK   41  A    between atoms: _89  and  _90
REMARK   42  A    between atoms: _89  and  _92
REMARK   43  A    between atoms: _92  and  _93
REMARK   44  A    between atoms: _96  and  _98
REMARK   45  A    between atoms: _98  and  _99
REMARK   46  A    between atoms: _101  and  _103
REMARK   47  A    between atoms: _103  and  _104
REMARK   48  A    between atoms: _106  and  _108
REMARK   49  A    between atoms: _108  and  _109
REMARK   50  A    between atoms: _108  and  _111
REMARK   51  A    between atoms: _111  and  _112
REMARK   52  A    between atoms: _115  and  _117
REMARK   53  A    between atoms: _117  and  _118
REMARK   54  A    between atoms: _120  and  _122
REMARK   55  A    between atoms: _122  and  _123
REMARK   56  A    between atoms: _125  and  _127
REMARK   57  A    between atoms: _127  and  _128
REMARK   58  A    between atoms: _127  and  _130
REMARK   59  A    between atoms: _130  and  _131
REMARK   60  A    between atoms: _137  and  _139
REMARK   61  A    between atoms: _139  and  _140
REMARK   62  A    between atoms: _139  and  _142
REMARK   63  A    between atoms: _142  and  _143
REMARK   64  A    between atoms: _146  and  _148
REMARK   65  A    between atoms: _148  and  _149
REMARK   66  A    between atoms: _148  and  _151
REMARK   67  A    between atoms: _154  and  _156
REMARK   68  A    between atoms: _156  and  _157
REMARK   69  A    between atoms: _156  and  _159
REMARK   70  A    between atoms: _159  and  _160
REMARK   71  A    between atoms: _163  and  _165
REMARK   72  A    between atoms: _165  and  _166
REMARK   73  A    between atoms: _169  and  _170
REMARK   74  A    between atoms: _175  and  _177
REMARK   75  A    between atoms: _177  and  _178
REMARK   76  A    between atoms: _177  and  _180
REMARK   77  A    between atoms: _180  and  _181
REMARK   78  A    between atoms: _185  and  _186
REMARK   79  A    between atoms: _191  and  _193
REMARK   80  A    between atoms: _193  and  _194
REMARK   81  A    between atoms: _193  and  _196
REMARK   82  A    between atoms: _199  and  _201
REMARK   83  A    between atoms: _201  and  _202
REMARK   84  A    between atoms: _201  and  _204
REMARK   85  A    between atoms: _204  and  _205
REMARK   86  A    between atoms: _210  and  _212
REMARK   87  A    between atoms: _212  and  _213
REMARK   88  A    between atoms: _212  and  _215
REMARK   89  A    between atoms: _215  and  _216
REMARK   90  A    between atoms: _219  and  _221
REMARK   91  A    between atoms: _221  and  _222
REMARK   92  A    between atoms: _221  and  _224
REMARK   93  A    between atoms: _224  and  _225
REMARK   94  A    between atoms: _228  and  _230
REMARK   95  A    between atoms: _230  and  _231
REMARK   96  A    between atoms: _233  and  _235
REMARK   97  A    between atoms: _235  and  _236
REMARK   98  A    between atoms: _235  and  _238
REMARK   99  A    between atoms: _238  and  _239
REMARK  100  A    between atoms: _239  and  _240
REMARK  101  A    between atoms: _240  and  _241
REMARK  102  A    between atoms: _250  and  _252
REMARK  103  A    between atoms: _252  and  _253
REMARK  104  A    between atoms: _252  and  _255
REMARK  105  A    between atoms: _255  and  _256
REMARK  106  A    between atoms: _256  and  _257
REMARK  107  A    between atoms: _257  and  _258
REMARK  108  A    between atoms: _267  and  _269
REMARK  109  A    between atoms: _269  and  _270
REMARK  110  A    between atoms: _269  and  _272
REMARK  111  A    between atoms: _272  and  _273
REMARK  112  A    between atoms: _276  and  _278
REMARK  113  A    between atoms: _278  and  _279
REMARK  114  A    between atoms: _281  and  _283
REMARK  115  A    between atoms: _283  and  _284
REMARK  116  A    between atoms: _287  and  _289
REMARK  117  A    between atoms: _289  and  _290
REMARK  118  A    between atoms: _289  and  _292
REMARK  119  A    between atoms: _292  and  _293
REMARK  120  A    between atoms: _296  and  _298
REMARK  121  A    between atoms: _298  and  _299
REMARK  122  A    between atoms: _298  and  _301
REMARK  123  A    between atoms: _301  and  _302
REMARK  124  A    between atoms: _305  and  _307
REMARK  125  A    between atoms: _307  and  _308
REMARK  126  A    between atoms: _307  and  _310
REMARK  127  A    between atoms: _313  and  _315
REMARK  128  A    between atoms: _315  and  _316
REMARK  129  A    between atoms: _315  and  _318
REMARK  130  A    between atoms: _318  and  _319
REMARK  131  A    between atoms: _322  and  _324
REMARK  132  A    between atoms: _324  and  _325
REMARK  133  A    between atoms: _324  and  _327
REMARK  134  A    between atoms: _327  and  _328
REMARK  135  A    between atoms: _328  and  _329
REMARK  136  A    between atoms: _332  and  _334
REMARK  137  A    between atoms: _334  and  _335
REMARK  138  A    between atoms: _334  and  _337
REMARK  139  A    between atoms: _337  and  _338
REMARK  140  A    between atoms: _338  and  _339
REMARK  141  A    between atoms: _341  and  _343
REMARK  142  A    between atoms: _343  and  _344
REMARK  143  A    between atoms: _343  and  _346
REMARK  144  A    between atoms: _346  and  _347
REMARK  145  A    between atoms: _350  and  _352
REMARK  146  A    between atoms: _352  and  _353
REMARK  147  A    between atoms: _355  and  _357
REMARK  148  A    between atoms: _357  and  _358
REMARK  149  A    between atoms: _360  and  _362
REMARK  150  A    between atoms: _362  and  _363
REMARK  151  A    between atoms: _362  and  _365
REMARK  152  A    between atoms: _365  and  _366
REMARK  153  A    between atoms: _369  and  _371
REMARK  154  A    between atoms: _371  and  _372
REMARK  155  A    between atoms: _374  and  _376
REMARK  156  A    between atoms: _376  and  _377
REMARK  157  A    between atoms: _376  and  _379
REMARK  158  A    between atoms: _379  and  _380
REMARK  159  A    between atoms: _386  and  _388
REMARK  160  A    between atoms: _388  and  _389
REMARK  161  A    between atoms: _388  and  _391
REMARK  162  A    between atoms: _391  and  _392
REMARK  163  A    between atoms: _395  and  _397
REMARK  164  A    between atoms: _397  and  _398
REMARK  165  A    between atoms: _397  and  _400
REMARK  166  A    between atoms: _400  and  _401
REMARK  167  A    between atoms: _401  and  _402
REMARK  168  A    between atoms: _402  and  _403
REMARK  169  A    between atoms: _403  and  _404
REMARK  170  A    between atoms: _408  and  _410
REMARK  171  A    between atoms: _410  and  _411
REMARK  172  A    between atoms: _410  and  _413
REMARK  173  A    between atoms: _416  and  _418
REMARK  174  A    between atoms: _418  and  _419
REMARK  175  A    between atoms: _418  and  _421
REMARK  176  A    between atoms: _421  and  _422
REMARK  177  A    between atoms: _422  and  _423
REMARK  178  A    between atoms: _423  and  _424
REMARK  179  A    between atoms: _433  and  _435
REMARK  180  A    between atoms: _435  and  _436
REMARK  181  A    between atoms: _435  and  _438
REMARK  182  A    between atoms: _438  and  _439
REMARK  183  A    between atoms: _442  and  _444
REMARK  184  A    between atoms: _444  and  _445
REMARK  185  A    between atoms: _444  and  _447
REMARK  186  A    between atoms: _450  and  _452
REMARK  187  A    between atoms: _452  and  _453
REMARK  188  A    between atoms: _456  and  _457
REMARK  189  A    between atoms: _462  and  _464
REMARK  190  A    between atoms: _464  and  _465
REMARK  191  A    between atoms: _464  and  _467
REMARK  192  A    between atoms: _467  and  _468
REMARK  193  A    between atoms: _472  and  _473
REMARK  194  A    between atoms: _478  and  _480
REMARK  195  A    between atoms: _480  and  _481
REMARK  196  A    between atoms: _480  and  _483
REMARK  197  A    between atoms: _486  and  _488
REMARK  198  A    between atoms: _488  and  _489
REMARK  199  A    between atoms: _488  and  _491
REMARK  200  A    between atoms: _491  and  _492
REMARK  201  A    between atoms: _497  and  _499
REMARK  202  A    between atoms: _499  and  _500
REMARK  203  A    between atoms: _499  and  _502
REMARK  204  A    between atoms: _502  and  _503
REMARK                            x       y       z     vdW  Elec       q    Type
REMARK                         _______ _______ _______ _____ _____    ______ ____
ROOT
ATOM      1  O   HOH     1      68.276  40.262  -0.229  0.00  0.00    +0.000 OA
ENDROOT
TORSDOF 0
REMARK  Name = ../refined-set-2016/1aid/1aid_pocket.pdb
REMARK  204 active torsions:
REMARK  status: ('A' for Active; 'I' for Inactive)
REMARK    1  A    between atoms: _1  and  _3
REMARK    2  A    between atoms: _3  and  _4
REMARK    3  A    between atoms: _3  and  _6
REMARK    4  A    between atoms: _6  and  _7
REMARK    5  A    between atoms: _10  and  _12
REMARK    6  A    between atoms: _12  and  _13
REMARK    7  A    between atoms: _15  and  _17
REMARK    8  A    between atoms: _17  and  _18
REMARK    9  A    between atoms: _21  and  _23
REMARK   10  A    between atoms: _23  and  _24
REMARK   11  A    between atoms: _23  and  _26
REMARK   12  A    between atoms: _26  and  _27
REMARK   13  A    between atoms: _30  and  _32
REMARK   14  A    between atoms: _32  and  _33
REMARK   15  A    between atoms: _32  and  _35
REMARK   16  A    between atoms: _35  and  _36
REMARK   17  A    between atoms: _39  and  _41
REMARK   18  A    between atoms: _41  and  _42
REMARK   19  A    between atoms: _41  and  _44
REMARK   20  A    between atoms: _44  and  _45
REMARK   21  A    between atoms: _48  and  _50
REMARK   22  A    between atoms: _50  and  _51
REMARK   23  A    between atoms: _50  and  _53
REMARK   24  A    between atoms: _56  and  _58
REMARK   25  A    between atoms: _58  and  _59
REMARK   26  A    between atoms: _58  and  _61
REMARK   27  A    between atoms: _61  and  _62
REMARK   28  A    between atoms: _65  and  _67
REMARK   29  A    between atoms: _67  and  _68
REMARK   30  A    between atoms: _67  and  _70
REMARK   31  A    between atoms: _70  and  _71
REMARK   32  A    between atoms: _71  and  _72
REMARK   33  A    between atoms: _72  and  _73
REMARK   34  A    between atoms: _73  and  _74
REMARK   35  A    between atoms: _78  and  _80
REMARK   36  A    between atoms: _80  and  _81
REMARK   37  A    between atoms: _80  and  _83
REMARK   38  A    between atoms: _83  and  _84
REMARK   39  A    between atoms: _84  and  _85
REMARK   40  A    between atoms: _87  and  _89
REMARK   41  A    between atoms: _89  and  _90
REMARK   42  A    between atoms: _89  and  _92
REMARK   43  A    between atoms: _92  and  _93
REMARK   44  A    between atoms: _96  and  _98
REMARK   45  A    between atoms: _98  and  _99
REMARK   46  A    between atoms: _101  and  _103
REMARK   47  A    between atoms: _103  and  _104
REMARK   48  A    between atoms: _106  and  _108
REMARK   49  A    between atoms: _108  and  _109
REMARK   50  A    between atoms: _108  and  _111
REMARK   51  A    between atoms: _111  and  _112
REMARK   52  A    between atoms: _115  and  _117
REMARK   53  A    between atoms: _117  and  _118
REMARK   54  A    between atoms: _120  and  _122
REMARK   55  A    between atoms: _122  and  _123
REMARK   56  A    between atoms: _125  and  _127
REMARK   57  A    between atoms: _127  and  _128
REMARK   58  A    between atoms: _127  and  _130
REMARK   59  A    between atoms: _130  and  _131
REMARK   60  A    between atoms: _137  and  _139
REMARK   61  A    between atoms: _139  and  _140
REMARK   62  A    between atoms: _139  and  _142
REMARK   63  A    between atoms: _142  and  _143
REMARK   64  A    between atoms: _146  and  _148
REMARK   65  A    between atoms: _148  and  _149
REMARK   66  A    between atoms: _148  and  _151
REMARK   67  A    between atoms: _154  and  _156
REMARK   68  A    between atoms: _156  and  _157
REMARK   69  A    between atoms: _156  and  _159
REMARK   70  A    between atoms: _159  and  _160
REMARK   71  A    between atoms: _163  and  _165
REMARK   72  A    between atoms: _165  and  _166
REMARK   73  A    between atoms: _169  and  _170
REMARK   74  A    between atoms: _175  and  _177
REMARK   75  A    between atoms: _177  and  _178
REMARK   76  A    between atoms: _177  and  _180
REMARK   77  A    between atoms: _180  and  _181
REMARK   78  A    between atoms: _185  and  _186
REMARK   79  A    between atoms: _191  and  _193
REMARK   80  A    between atoms: _193  and  _194
REMARK   81  A    between atoms: _193  and  _196
REMARK   82  A    between atoms: _199  and  _201
REMARK   83  A    between atoms: _201  and  _202
REMARK   84  A    between atoms: _201  and  _204
REMARK   85  A    between atoms: _204  and  _205
REMARK   86  A    between atoms: _210  and  _212
REMARK   87  A    between atoms: _212  and  _213
REMARK   88  A    between atoms: _212  and  _215
REMARK   89  A    between atoms: _215  and  _216
REMARK   90  A    between atoms: _219  and  _221
REMARK   91  A    between atoms: _221  and  _222
REMARK   92  A    between atoms: _221  and  _224
REMARK   93  A    between atoms: _224  and  _225
REMARK   94  A    between atoms: _228  and  _230
REMARK   95  A    between atoms: _230  and  _231
REMARK   96  A    between atoms: _233  and  _235
REMARK   97  A    between atoms: _235  and  _236
REMARK   98  A    between atoms: _235  and  _238
REMARK   99  A    between atoms: _238  and  _239
REMARK  100  A    between atoms: _239  and  _240
REMARK  101  A    between atoms: _240  and  _241
REMARK  102  A    between atoms: _250  and  _252
REMARK  103  A    between atoms: _252  and  _253
REMARK  104  A    between atoms: _252  and  _255
REMARK  105  A    between atoms: _255  and  _256
REMARK  106  A    between atoms: _256  and  _257
REMARK  107  A    between atoms: _257  and  _258
REMARK  108  A    between atoms: _267  and  _269
REMARK  109  A    between atoms: _269  and  _270
REMARK  110  A    between atoms: _269  and  _272
REMARK  111  A    between atoms: _272  and  _273
REMARK  112  A    between atoms: _276  and  _278
REMARK  113  A    between atoms: _278  and  _279
REMARK  114  A    between atoms: _281  and  _283
REMARK  115  A    between atoms: _283  and  _284
REMARK  116  A    between atoms: _287  and  _289
REMARK  117  A    between atoms: _289  and  _290
REMARK  118  A    between atoms: _289  and  _292
REMARK  119  A    between atoms: _292  and  _293
REMARK  120  A    between atoms: _296  and  _298
REMARK  121  A    between atoms: _298  and  _299
REMARK  122  A    between atoms: _298  and  _301
REMARK  123  A    between atoms: _301  and  _302
REMARK  124  A    between atoms: _305  and  _307
REMARK  125  A    between atoms: _307  and  _308
REMARK  126  A    between atoms: _307  and  _310
REMARK  127  A    between atoms: _313  and  _315
REMARK  128  A    between atoms: _315  and  _316
REMARK  129  A    between atoms: _315  and  _318
REMARK  130  A    between atoms: _318  and  _319
REMARK  131  A    between atoms: _322  and  _324
REMARK  132  A    between atoms: _324  and  _325
REMARK  133  A    between atoms: _324  and  _327
REMARK  134  A    between atoms: _327  and  _328
REMARK  135  A    between atoms: _328  and  _329
REMARK  136  A    between atoms: _332  and  _334
REMARK  137  A    between atoms: _334  and  _335
REMARK  138  A    between atoms: _334  and  _337
REMARK  139  A    between atoms: _337  and  _338
REMARK  140  A    between atoms: _338  and  _339
REMARK  141  A    between atoms: _341  and  _343
REMARK  142  A    between atoms: _343  and  _344
REMARK  143  A    between atoms: _343  and  _346
REMARK  144  A    between atoms: _346  and  _347
REMARK  145  A    between atoms: _350  and  _352
REMARK  146  A    between atoms: _352  and  _353
REMARK  147  A    between atoms: _355  and  _357
REMARK  148  A    between atoms: _357  and  _358
REMARK  149  A    between atoms: _360  and  _362
REMARK  150  A    between atoms: _362  and  _363
REMARK  151  A    between atoms: _362  and  _365
REMARK  152  A    between atoms: _365  and  _366
REMARK  153  A    between atoms: _369  and  _371
REMARK  154  A    between atoms: _371  and  _372
REMARK  155  A    between atoms: _374  and  _376
REMARK  156  A    between atoms: _376  and  _377
REMARK  157  A    between atoms: _376  and  _379
REMARK  158  A    between atoms: _379  and  _380
REMARK  159  A    between atoms: _386  and  _388
REMARK  160  A    between atoms: _388  and  _389
REMARK  161  A    between atoms: _388  and  _391
REMARK  162  A    between atoms: _391  and  _392
REMARK  163  A    between atoms: _395  and  _397
REMARK  164  A    between atoms: _397  and  _398
REMARK  165  A    between atoms: _397  and  _400
REMARK  166  A    between atoms: _400  and  _401
REMARK  167  A    between atoms: _401  and  _402
REMARK  168  A    between atoms: _402  and  _403
REMARK  169  A    between atoms: _403  and  _404
REMARK  170  A    between atoms: _408  and  _410
REMARK  171  A    between atoms: _410  and  _411
REMARK  172  A    between atoms: _410  and  _413
REMARK  173  A    between atoms: _416  and  _418
REMARK  174  A    between atoms: _418  and  _419
REMARK  175  A    between atoms: _418  and  _421
REMARK  176  A    between atoms: _421  and  _422
REMARK  177  A    between atoms: _422  and  _423
REMARK  178  A    between atoms: _423  and  _424
REMARK  179  A    between atoms: _433  and  _435
REMARK  180  A    between atoms: _435  and  _436
REMARK  181  A    between atoms: _435  and  _438
REMARK  182  A    between atoms: _438  and  _439
REMARK  183  A    between atoms: _442  and  _444
REMARK  184  A    between atoms: _444  and  _445
REMARK  185  A    between atoms: _444  and  _447
REMARK  186  A    between atoms: _450  and  _452
REMARK  187  A    between atoms: _452  and  _453
REMARK  188  A    between atoms: _456  and  _457
REMARK  189  A    between atoms: _462  and  _464
REMARK  190  A    between atoms: _464  and  _465
REMARK  191  A    between atoms: _464  and  _467
REMARK  192  A    between atoms: _467  and  _468
REMARK  193  A    between atoms: _472  and  _473
REMARK  194  A    between atoms: _478  and  _480
REMARK  195  A    between atoms: _480  and  _481
REMARK  196  A    between atoms: _480  and  _483
REMARK  197  A    between atoms: _486  and  _488
REMARK  198  A    between atoms: _488  and  _489
REMARK  199  A    between atoms: _488  and  _491
REMARK  200  A    between atoms: _491  and  _492
REMARK  201  A    between atoms: _497  and  _499
REMARK  202  A    between atoms: _499  and  _500
REMARK  203  A    between atoms: _499  and  _502
REMARK  204  A    between atoms: _502  and  _503
REMARK                            x       y       z     vdW  Elec       q    Type
REMARK                         _______ _______ _______ _____ _____    ______ ____
ROOT
ATOM      1  O   HOH     1      68.377  30.627  -4.663  0.00  0.00    +0.000 OA
ENDROOT
TORSDOF 0
REMARK  Name = ../refined-set-2016/1aid/1aid_pocket.pdb
REMARK  204 active torsions:
REMARK  status: ('A' for Active; 'I' for Inactive)
REMARK    1  A    between atoms: _1  and  _3
REMARK    2  A    between atoms: _3  and  _4
REMARK    3  A    between atoms: _3  and  _6
REMARK    4  A    between atoms: _6  and  _7
REMARK    5  A    between atoms: _10  and  _12
REMARK    6  A    between atoms: _12  and  _13
REMARK    7  A    between atoms: _15  and  _17
REMARK    8  A    between atoms: _17  and  _18
REMARK    9  A    between atoms: _21  and  _23
REMARK   10  A    between atoms: _23  and  _24
REMARK   11  A    between atoms: _23  and  _26
REMARK   12  A    between atoms: _26  and  _27
REMARK   13  A    between atoms: _30  and  _32
REMARK   14  A    between atoms: _32  and  _33
REMARK   15  A    between atoms: _32  and  _35
REMARK   16  A    between atoms: _35  and  _36
REMARK   17  A    between atoms: _39  and  _41
REMARK   18  A    between atoms: _41  and  _42
REMARK   19  A    between atoms: _41  and  _44
REMARK   20  A    between atoms: _44  and  _45
REMARK   21  A    between atoms: _48  and  _50
REMARK   22  A    between atoms: _50  and  _51
REMARK   23  A    between atoms: _50  and  _53
REMARK   24  A    between atoms: _56  and  _58
REMARK   25  A    between atoms: _58  and  _59
REMARK   26  A    between atoms: _58  and  _61
REMARK   27  A    between atoms: _61  and  _62
REMARK   28  A    between atoms: _65  and  _67
REMARK   29  A    between atoms: _67  and  _68
REMARK   30  A    between atoms: _67  and  _70
REMARK   31  A    between atoms: _70  and  _71
REMARK   32  A    between atoms: _71  and  _72
REMARK   33  A    between atoms: _72  and  _73
REMARK   34  A    between atoms: _73  and  _74
REMARK   35  A    between atoms: _78  and  _80
REMARK   36  A    between atoms: _80  and  _81
REMARK   37  A    between atoms: _80  and  _83
REMARK   38  A    between atoms: _83  and  _84
REMARK   39  A    between atoms: _84  and  _85
REMARK   40  A    between atoms: _87  and  _89
REMARK   41  A    between atoms: _89  and  _90
REMARK   42  A    between atoms: _89  and  _92
REMARK   43  A    between atoms: _92  and  _93
REMARK   44  A    between atoms: _96  and  _98
REMARK   45  A    between atoms: _98  and  _99
REMARK   46  A    between atoms: _101  and  _103
REMARK   47  A    between atoms: _103  and  _104
REMARK   48  A    between atoms: _106  and  _108
REMARK   49  A    between atoms: _108  and  _109
REMARK   50  A    between atoms: _108  and  _111
REMARK   51  A    between atoms: _111  and  _112
REMARK   52  A    between atoms: _115  and  _117
REMARK   53  A    between atoms: _117  and  _118
REMARK   54  A    between atoms: _120  and  _122
REMARK   55  A    between atoms: _122  and  _123
REMARK   56  A    between atoms: _125  and  _127
REMARK   57  A    between atoms: _127  and  _128
REMARK   58  A    between atoms: _127  and  _130
REMARK   59  A    between atoms: _130  and  _131
REMARK   60  A    between atoms: _137  and  _139
REMARK   61  A    between atoms: _139  and  _140
REMARK   62  A    between atoms: _139  and  _142
REMARK   63  A    between atoms: _142  and  _143
REMARK   64  A    between atoms: _146  and  _148
REMARK   65  A    between atoms: _148  and  _149
REMARK   66  A    between atoms: _148  and  _151
REMARK   67  A    between atoms: _154  and  _156
REMARK   68  A    between atoms: _156  and  _157
REMARK   69  A    between atoms: _156  and  _159
REMARK   70  A    between atoms: _159  and  _160
REMARK   71  A    between atoms: _163  and  _165
REMARK   72  A    between atoms: _165  and  _166
REMARK   73  A    between atoms: _169  and  _170
REMARK   74  A    between atoms: _175  and  _177
REMARK   75  A    between atoms: _177  and  _178
REMARK   76  A    between atoms: _177  and  _180
REMARK   77  A    between atoms: _180  and  _181
REMARK   78  A    between atoms: _185  and  _186
REMARK   79  A    between atoms: _191  and  _193
REMARK   80  A    between atoms: _193  and  _194
REMARK   81  A    between atoms: _193  and  _196
REMARK   82  A    between atoms: _199  and  _201
REMARK   83  A    between atoms: _201  and  _202
REMARK   84  A    between atoms: _201  and  _204
REMARK   85  A    between atoms: _204  and  _205
REMARK   86  A    between atoms: _210  and  _212
REMARK   87  A    between atoms: _212  and  _213
REMARK   88  A    between atoms: _212  and  _215
REMARK   89  A    between atoms: _215  and  _216
REMARK   90  A    between atoms: _219  and  _221
REMARK   91  A    between atoms: _221  and  _222
REMARK   92  A    between atoms: _221  and  _224
REMARK   93  A    between atoms: _224  and  _225
REMARK   94  A    between atoms: _228  and  _230
REMARK   95  A    between atoms: _230  and  _231
REMARK   96  A    between atoms: _233  and  _235
REMARK   97  A    between atoms: _235  and  _236
REMARK   98  A    between atoms: _235  and  _238
REMARK   99  A    between atoms: _238  and  _239
REMARK  100  A    between atoms: _239  and  _240
REMARK  101  A    between atoms: _240  and  _241
REMARK  102  A    between atoms: _250  and  _252
REMARK  103  A    between atoms: _252  and  _253
REMARK  104  A    between atoms: _252  and  _255
REMARK  105  A    between atoms: _255  and  _256
REMARK  106  A    between atoms: _256  and  _257
REMARK  107  A    between atoms: _257  and  _258
REMARK  108  A    between atoms: _267  and  _269
REMARK  109  A    between atoms: _269  and  _270
REMARK  110  A    between atoms: _269  and  _272
REMARK  111  A    between atoms: _272  and  _273
REMARK  112  A    between atoms: _276  and  _278
REMARK  113  A    between atoms: _278  and  _279
REMARK  114  A    between atoms: _281  and  _283
REMARK  115  A    between atoms: _283  and  _284
REMARK  116  A    between atoms: _287  and  _289
REMARK  117  A    between atoms: _289  and  _290
REMARK  118  A    between atoms: _289  and  _292
REMARK  119  A    between atoms: _292  and  _293
REMARK  120  A    between atoms: _296  and  _298
REMARK  121  A    between atoms: _298  and  _299
REMARK  122  A    between atoms: _298  and  _301
REMARK  123  A    between atoms: _301  and  _302
REMARK  124  A    between atoms: _305  and  _307
REMARK  125  A    between atoms: _307  and  _308
REMARK  126  A    between atoms: _307  and  _310
REMARK  127  A    between atoms: _313  and  _315
REMARK  128  A    between atoms: _315  and  _316
REMARK  129  A    between atoms: _315  and  _318
REMARK  130  A    between atoms: _318  and  _319
REMARK  131  A    between atoms: _322  and  _324
REMARK  132  A    between atoms: _324  and  _325
REMARK  133  A    between atoms: _324  and  _327
REMARK  134  A    between atoms: _327  and  _328
REMARK  135  A    between atoms: _328  and  _329
REMARK  136  A    between atoms: _332  and  _334
REMARK  137  A    between atoms: _334  and  _335
REMARK  138  A    between atoms: _334  and  _337
REMARK  139  A    between atoms: _337  and  _338
REMARK  140  A    between atoms: _338  and  _339
REMARK  141  A    between atoms: _341  and  _343
REMARK  142  A    between atoms: _343  and  _344
REMARK  143  A    between atoms: _343  and  _346
REMARK  144  A    between atoms: _346  and  _347
REMARK  145  A    between atoms: _350  and  _352
REMARK  146  A    between atoms: _352  and  _353
REMARK  147  A    between atoms: _355  and  _357
REMARK  148  A    between atoms: _357  and  _358
REMARK  149  A    between atoms: _360  and  _362
REMARK  150  A    between atoms: _362  and  _363
REMARK  151  A    between atoms: _362  and  _365
REMARK  152  A    between atoms: _365  and  _366
REMARK  153  A    between atoms: _369  and  _371
REMARK  154  A    between atoms: _371  and  _372
REMARK  155  A    between atoms: _374  and  _376
REMARK  156  A    between atoms: _376  and  _377
REMARK  157  A    between atoms: _376  and  _379
REMARK  158  A    between atoms: _379  and  _380
REMARK  159  A    between atoms: _386  and  _388
REMARK  160  A    between atoms: _388  and  _389
REMARK  161  A    between atoms: _388  and  _391
REMARK  162  A    between atoms: _391  and  _392
REMARK  163  A    between atoms: _395  and  _397
REMARK  164  A    between atoms: _397  and  _398
REMARK  165  A    between atoms: _397  and  _400
REMARK  166  A    between atoms: _400  and  _401
REMARK  167  A    between atoms: _401  and  _402
REMARK  168  A    between atoms: _402  and  _403
REMARK  169  A    between atoms: _403  and  _404
REMARK  170  A    between atoms: _408  and  _410
REMARK  171  A    between atoms: _410  and  _411
REMARK  172  A    between atoms: _410  and  _413
REMARK  173  A    between atoms: _416  and  _418
REMARK  174  A    between atoms: _418  and  _419
REMARK  175  A    between atoms: _418  and  _421
REMARK  176  A    between atoms: _421  and  _422
REMARK  177  A    between atoms: _422  and  _423
REMARK  178  A    between atoms: _423  and  _424
REMARK  179  A    between atoms: _433  and  _435
REMARK  180  A    between atoms: _435  and  _436
REMARK  181  A    between atoms: _435  and  _438
REMARK  182  A    between atoms: _438  and  _439
REMARK  183  A    between atoms: _442  and  _444
REMARK  184  A    between atoms: _444  and  _445
REMARK  185  A    between atoms: _444  and  _447
REMARK  186  A    between atoms: _450  and  _452
REMARK  187  A    between atoms: _452  and  _453
REMARK  188  A    between atoms: _456  and  _457
REMARK  189  A    between atoms: _462  and  _464
REMARK  190  A    between atoms: _464  and  _465
REMARK  191  A    between atoms: _464  and  _467
REMARK  192  A    between atoms: _467  and  _468
REMARK  193  A    between atoms: _472  and  _473
REMARK  194  A    between atoms: _478  and  _480
REMARK  195  A    between atoms: _480  and  _481
REMARK  196  A    between atoms: _480  and  _483
REMARK  197  A    between atoms: _486  and  _488
REMARK  198  A    between atoms: _488  and  _489
REMARK  199  A    between atoms: _488  and  _491
REMARK  200  A    between atoms: _491  and  _492
REMARK  201  A    between atoms: _497  and  _499
REMARK  202  A    between atoms: _499  and  _500
REMARK  203  A    between atoms: _499  and  _502
REMARK  204  A    between atoms: _502  and  _503
REMARK                            x       y       z     vdW  Elec       q    Type
REMARK                         _______ _______ _______ _____ _____    ______ ____
ROOT
ATOM      1  O   HOH     1      62.544  46.020   2.676  0.00  0.00    +0.000 OA
ENDROOT
TORSDOF 0
REMARK  Name = ../refined-set-2016/1aid/1aid_pocket.pdb
REMARK  204 active torsions:
REMARK  status: ('A' for Active; 'I' for Inactive)
REMARK    1  A    between atoms: _1  and  _3
REMARK    2  A    between atoms: _3  and  _4
REMARK    3  A    between atoms: _3  and  _6
REMARK    4  A    between atoms: _6  and  _7
REMARK    5  A    between atoms: _10  and  _12
REMARK    6  A    between atoms: _12  and  _13
REMARK    7  A    between atoms: _15  and  _17
REMARK    8  A    between atoms: _17  and  _18
REMARK    9  A    between atoms: _21  and  _23
REMARK   10  A    between atoms: _23  and  _24
REMARK   11  A    between atoms: _23  and  _26
REMARK   12  A    between atoms: _26  and  _27
REMARK   13  A    between atoms: _30  and  _32
REMARK   14  A    between atoms: _32  and  _33
REMARK   15  A    between atoms: _32  and  _35
REMARK   16  A    between atoms: _35  and  _36
REMARK   17  A    between atoms: _39  and  _41
REMARK   18  A    between atoms: _41  and  _42
REMARK   19  A    between atoms: _41  and  _44
REMARK   20  A    between atoms: _44  and  _45
REMARK   21  A    between atoms: _48  and  _50
REMARK   22  A    between atoms: _50  and  _51
REMARK   23  A    between atoms: _50  and  _53
REMARK   24  A    between atoms: _56  and  _58
REMARK   25  A    between atoms: _58  and  _59
REMARK   26  A    between atoms: _58  and  _61
REMARK   27  A    between atoms: _61  and  _62
REMARK   28  A    between atoms: _65  and  _67
REMARK   29  A    between atoms: _67  and  _68
REMARK   30  A    between atoms: _67  and  _70
REMARK   31  A    between atoms: _70  and  _71
REMARK   32  A    between atoms: _71  and  _72
REMARK   33  A    between atoms: _72  and  _73
REMARK   34  A    between atoms: _73  and  _74
REMARK   35  A    between atoms: _78  and  _80
REMARK   36  A    between atoms: _80  and  _81
REMARK   37  A    between atoms: _80  and  _83
REMARK   38  A    between atoms: _83  and  _84
REMARK   39  A    between atoms: _84  and  _85
REMARK   40  A    between atoms: _87  and  _89
REMARK   41  A    between atoms: _89  and  _90
REMARK   42  A    between atoms: _89  and  _92
REMARK   43  A    between atoms: _92  and  _93
REMARK   44  A    between atoms: _96  and  _98
REMARK   45  A    between atoms: _98  and  _99
REMARK   46  A    between atoms: _101  and  _103
REMARK   47  A    between atoms: _103  and  _104
REMARK   48  A    between atoms: _106  and  _108
REMARK   49  A    between atoms: _108  and  _109
REMARK   50  A    between atoms: _108  and  _111
REMARK   51  A    between atoms: _111  and  _112
REMARK   52  A    between atoms: _115  and  _117
REMARK   53  A    between atoms: _117  and  _118
REMARK   54  A    between atoms: _120  and  _122
REMARK   55  A    between atoms: _122  and  _123
REMARK   56  A    between atoms: _125  and  _127
REMARK   57  A    between atoms: _127  and  _128
REMARK   58  A    between atoms: _127  and  _130
REMARK   59  A    between atoms: _130  and  _131
REMARK   60  A    between atoms: _137  and  _139
REMARK   61  A    between atoms: _139  and  _140
REMARK   62  A    between atoms: _139  and  _142
REMARK   63  A    between atoms: _142  and  _143
REMARK   64  A    between atoms: _146  and  _148
REMARK   65  A    between atoms: _148  and  _149
REMARK   66  A    between atoms: _148  and  _151
REMARK   67  A    between atoms: _154  and  _156
REMARK   68  A    between atoms: _156  and  _157
REMARK   69  A    between atoms: _156  and  _159
REMARK   70  A    between atoms: _159  and  _160
REMARK   71  A    between atoms: _163  and  _165
REMARK   72  A    between atoms: _165  and  _166
REMARK   73  A    between atoms: _169  and  _170
REMARK   74  A    between atoms: _175  and  _177
REMARK   75  A    between atoms: _177  and  _178
REMARK   76  A    between atoms: _177  and  _180
REMARK   77  A    between atoms: _180  and  _181
REMARK   78  A    between atoms: _185  and  _186
REMARK   79  A    between atoms: _191  and  _193
REMARK   80  A    between atoms: _193  and  _194
REMARK   81  A    between atoms: _193  and  _196
REMARK   82  A    between atoms: _199  and  _201
REMARK   83  A    between atoms: _201  and  _202
REMARK   84  A    between atoms: _201  and  _204
REMARK   85  A    between atoms: _204  and  _205
REMARK   86  A    between atoms: _210  and  _212
REMARK   87  A    between atoms: _212  and  _213
REMARK   88  A    between atoms: _212  and  _215
REMARK   89  A    between atoms: _215  and  _216
REMARK   90  A    between atoms: _219  and  _221
REMARK   91  A    between atoms: _221  and  _222
REMARK   92  A    between atoms: _221  and  _224
REMARK   93  A    between atoms: _224  and  _225
REMARK   94  A    between atoms: _228  and  _230
REMARK   95  A    between atoms: _230  and  _231
REMARK   96  A    between atoms: _233  and  _235
REMARK   97  A    between atoms: _235  and  _236
REMARK   98  A    between atoms: _235  and  _238
REMARK   99  A    between atoms: _238  and  _239
REMARK  100  A    between atoms: _239  and  _240
REMARK  101  A    between atoms: _240  and  _241
REMARK  102  A    between atoms: _250  and  _252
REMARK  103  A    between atoms: _252  and  _253
REMARK  104  A    between atoms: _252  and  _255
REMARK  105  A    between atoms: _255  and  _256
REMARK  106  A    between atoms: _256  and  _257
REMARK  107  A    between atoms: _257  and  _258
REMARK  108  A    between atoms: _267  and  _269
REMARK  109  A    between atoms: _269  and  _270
REMARK  110  A    between atoms: _269  and  _272
REMARK  111  A    between atoms: _272  and  _273
REMARK  112  A    between atoms: _276  and  _278
REMARK  113  A    between atoms: _278  and  _279
REMARK  114  A    between atoms: _281  and  _283
REMARK  115  A    between atoms: _283  and  _284
REMARK  116  A    between atoms: _287  and  _289
REMARK  117  A    between atoms: _289  and  _290
REMARK  118  A    between atoms: _289  and  _292
REMARK  119  A    between atoms: _292  and  _293
REMARK  120  A    between atoms: _296  and  _298
REMARK  121  A    between atoms: _298  and  _299
REMARK  122  A    between atoms: _298  and  _301
REMARK  123  A    between atoms: _301  and  _302
REMARK  124  A    between atoms: _305  and  _307
REMARK  125  A    between atoms: _307  and  _308
REMARK  126  A    between atoms: _307  and  _310
REMARK  127  A    between atoms: _313  and  _315
REMARK  128  A    between atoms: _315  and  _316
REMARK  129  A    between atoms: _315  and  _318
REMARK  130  A    between atoms: _318  and  _319
REMARK  131  A    between atoms: _322  and  _324
REMARK  132  A    between atoms: _324  and  _325
REMARK  133  A    between atoms: _324  and  _327
REMARK  134  A    between atoms: _327  and  _328
REMARK  135  A    between atoms: _328  and  _329
REMARK  136  A    between atoms: _332  and  _334
REMARK  137  A    between atoms: _334  and  _335
REMARK  138  A    between atoms: _334  and  _337
REMARK  139  A    between atoms: _337  and  _338
REMARK  140  A    between atoms: _338  and  _339
REMARK  141  A    between atoms: _341  and  _343
REMARK  142  A    between atoms: _343  and  _344
REMARK  143  A    between atoms: _343  and  _346
REMARK  144  A    between atoms: _346  and  _347
REMARK  145  A    between atoms: _350  and  _352
REMARK  146  A    between atoms: _352  and  _353
REMARK  147  A    between atoms: _355  and  _357
REMARK  148  A    between atoms: _357  and  _358
REMARK  149  A    between atoms: _360  and  _362
REMARK  150  A    between atoms: _362  and  _363
REMARK  151  A    between atoms: _362  and  _365
REMARK  152  A    between atoms: _365  and  _366
REMARK  153  A    between atoms: _369  and  _371
REMARK  154  A    between atoms: _371  and  _372
REMARK  155  A    between atoms: _374  and  _376
REMARK  156  A    between atoms: _376  and  _377
REMARK  157  A    between atoms: _376  and  _379
REMARK  158  A    between atoms: _379  and  _380
REMARK  159  A    between atoms: _386  and  _388
REMARK  160  A    between atoms: _388  and  _389
REMARK  161  A    between atoms: _388  and  _391
REMARK  162  A    between atoms: _391  and  _392
REMARK  163  A    between atoms: _395  and  _397
REMARK  164  A    between atoms: _397  and  _398
REMARK  165  A    between atoms: _397  and  _400
REMARK  166  A    between atoms: _400  and  _401
REMARK  167  A    between atoms: _401  and  _402
REMARK  168  A    between atoms: _402  and  _403
REMARK  169  A    between atoms: _403  and  _404
REMARK  170  A    between atoms: _408  and  _410
REMARK  171  A    between atoms: _410  and  _411
REMARK  172  A    between atoms: _410  and  _413
REMARK  173  A    between atoms: _416  and  _418
REMARK  174  A    between atoms: _418  and  _419
REMARK  175  A    between atoms: _418  and  _421
REMARK  176  A    between atoms: _421  and  _422
REMARK  177  A    between atoms: _422  and  _423
REMARK  178  A    between atoms: _423  and  _424
REMARK  179  A    between atoms: _433  and  _435
REMARK  180  A    between atoms: _435  and  _436
REMARK  181  A    between atoms: _435  and  _438
REMARK  182  A    between atoms: _438  and  _439
REMARK  183  A    between atoms: _442  and  _444
REMARK  184  A    between atoms: _444  and  _445
REMARK  185  A    between atoms: _444  and  _447
REMARK  186  A    between atoms: _450  and  _452
REMARK  187  A    between atoms: _452  and  _453
REMARK  188  A    between atoms: _456  and  _457
REMARK  189  A    between atoms: _462  and  _464
REMARK  190  A    between atoms: _464  and  _465
REMARK  191  A    between atoms: _464  and  _467
REMARK  192  A    between atoms: _467  and  _468
REMARK  193  A    between atoms: _472  and  _473
REMARK  194  A    between atoms: _478  and  _480
REMARK  195  A    between atoms: _480  and  _481
REMARK  196  A    between atoms: _480  and  _483
REMARK  197  A    between atoms: _486  and  _488
REMARK  198  A    between atoms: _488  and  _489
REMARK  199  A    between atoms: _488  and  _491
REMARK  200  A    between atoms: _491  and  _492
REMARK  201  A    between atoms: _497  and  _499
REMARK  202  A    between atoms: _499  and  _500
REMARK  203  A    between atoms: _499  and  _502
REMARK  204  A    between atoms: _502  and  _503
REMARK                            x       y       z     vdW  Elec       q    Type
REMARK                         _______ _______ _______ _____ _____    ______ ____
ROOT
ATOM      1  O   HOH     1      66.456  41.490   1.741  0.00  0.00    +0.000 OA
ENDROOT
TORSDOF 0
REMARK  Name = ../refined-set-2016/1aid/1aid_pocket.pdb
REMARK  204 active torsions:
REMARK  status: ('A' for Active; 'I' for Inactive)
REMARK    1  A    between atoms: _1  and  _3
REMARK    2  A    between atoms: _3  and  _4
REMARK    3  A    between atoms: _3  and  _6
REMARK    4  A    between atoms: _6  and  _7
REMARK    5  A    between atoms: _10  and  _12
REMARK    6  A    between atoms: _12  and  _13
REMARK    7  A    between atoms: _15  and  _17
REMARK    8  A    between atoms: _17  and  _18
REMARK    9  A    between atoms: _21  and  _23
REMARK   10  A    between atoms: _23  and  _24
REMARK   11  A    between atoms: _23  and  _26
REMARK   12  A    between atoms: _26  and  _27
REMARK   13  A    between atoms: _30  and  _32
REMARK   14  A    between atoms: _32  and  _33
REMARK   15  A    between atoms: _32  and  _35
REMARK   16  A    between atoms: _35  and  _36
REMARK   17  A    between atoms: _39  and  _41
REMARK   18  A    between atoms: _41  and  _42
REMARK   19  A    between atoms: _41  and  _44
REMARK   20  A    between atoms: _44  and  _45
REMARK   21  A    between atoms: _48  and  _50
REMARK   22  A    between atoms: _50  and  _51
REMARK   23  A    between atoms: _50  and  _53
REMARK   24  A    between atoms: _56  and  _58
REMARK   25  A    between atoms: _58  and  _59
REMARK   26  A    between atoms: _58  and  _61
REMARK   27  A    between atoms: _61  and  _62
REMARK   28  A    between atoms: _65  and  _67
REMARK   29  A    between atoms: _67  and  _68
REMARK   30  A    between atoms: _67  and  _70
REMARK   31  A    between atoms: _70  and  _71
REMARK   32  A    between atoms: _71  and  _72
REMARK   33  A    between atoms: _72  and  _73
REMARK   34  A    between atoms: _73  and  _74
REMARK   35  A    between atoms: _78  and  _80
REMARK   36  A    between atoms: _80  and  _81
REMARK   37  A    between atoms: _80  and  _83
REMARK   38  A    between atoms: _83  and  _84
REMARK   39  A    between atoms: _84  and  _85
REMARK   40  A    between atoms: _87  and  _89
REMARK   41  A    between atoms: _89  and  _90
REMARK   42  A    between atoms: _89  and  _92
REMARK   43  A    between atoms: _92  and  _93
REMARK   44  A    between atoms: _96  and  _98
REMARK   45  A    between atoms: _98  and  _99
REMARK   46  A    between atoms: _101  and  _103
REMARK   47  A    between atoms: _103  and  _104
REMARK   48  A    between atoms: _106  and  _108
REMARK   49  A    between atoms: _108  and  _109
REMARK   50  A    between atoms: _108  and  _111
REMARK   51  A    between atoms: _111  and  _112
REMARK   52  A    between atoms: _115  and  _117
REMARK   53  A    between atoms: _117  and  _118
REMARK   54  A    between atoms: _120  and  _122
REMARK   55  A    between atoms: _122  and  _123
REMARK   56  A    between atoms: _125  and  _127
REMARK   57  A    between atoms: _127  and  _128
REMARK   58  A    between atoms: _127  and  _130
REMARK   59  A    between atoms: _130  and  _131
REMARK   60  A    between atoms: _137  and  _139
REMARK   61  A    between atoms: _139  and  _140
REMARK   62  A    between atoms: _139  and  _142
REMARK   63  A    between atoms: _142  and  _143
REMARK   64  A    between atoms: _146  and  _148
REMARK   65  A    between atoms: _148  and  _149
REMARK   66  A    between atoms: _148  and  _151
REMARK   67  A    between atoms: _154  and  _156
REMARK   68  A    between atoms: _156  and  _157
REMARK   69  A    between atoms: _156  and  _159
REMARK   70  A    between atoms: _159  and  _160
REMARK   71  A    between atoms: _163  and  _165
REMARK   72  A    between atoms: _165  and  _166
REMARK   73  A    between atoms: _169  and  _170
REMARK   74  A    between atoms: _175  and  _177
REMARK   75  A    between atoms: _177  and  _178
REMARK   76  A    between atoms: _177  and  _180
REMARK   77  A    between atoms: _180  and  _181
REMARK   78  A    between atoms: _185  and  _186
REMARK   79  A    between atoms: _191  and  _193
REMARK   80  A    between atoms: _193  and  _194
REMARK   81  A    between atoms: _193  and  _196
REMARK   82  A    between atoms: _199  and  _201
REMARK   83  A    between atoms: _201  and  _202
REMARK   84  A    between atoms: _201  and  _204
REMARK   85  A    between atoms: _204  and  _205
REMARK   86  A    between atoms: _210  and  _212
REMARK   87  A    between atoms: _212  and  _213
REMARK   88  A    between atoms: _212  and  _215
REMARK   89  A    between atoms: _215  and  _216
REMARK   90  A    between atoms: _219  and  _221
REMARK   91  A    between atoms: _221  and  _222
REMARK   92  A    between atoms: _221  and  _224
REMARK   93  A    between atoms: _224  and  _225
REMARK   94  A    between atoms: _228  and  _230
REMARK   95  A    between atoms: _230  and  _231
REMARK   96  A    between atoms: _233  and  _235
REMARK   97  A    between atoms: _235  and  _236
REMARK   98  A    between atoms: _235  and  _238
REMARK   99  A    between atoms: _238  and  _239
REMARK  100  A    between atoms: _239  and  _240
REMARK  101  A    between atoms: _240  and  _241
REMARK  102  A    between atoms: _250  and  _252
REMARK  103  A    between atoms: _252  and  _253
REMARK  104  A    between atoms: _252  and  _255
REMARK  105  A    between atoms: _255  and  _256
REMARK  106  A    between atoms: _256  and  _257
REMARK  107  A    between atoms: _257  and  _258
REMARK  108  A    between atoms: _267  and  _269
REMARK  109  A    between atoms: _269  and  _270
REMARK  110  A    between atoms: _269  and  _272
REMARK  111  A    between atoms: _272  and  _273
REMARK  112  A    between atoms: _276  and  _278
REMARK  113  A    between atoms: _278  and  _279
REMARK  114  A    between atoms: _281  and  _283
REMARK  115  A    between atoms: _283  and  _284
REMARK  116  A    between atoms: _287  and  _289
REMARK  117  A    between atoms: _289  and  _290
REMARK  118  A    between atoms: _289  and  _292
REMARK  119  A    between atoms: _292  and  _293
REMARK  120  A    between atoms: _296  and  _298
REMARK  121  A    between atoms: _298  and  _299
REMARK  122  A    between atoms: _298  and  _301
REMARK  123  A    between atoms: _301  and  _302
REMARK  124  A    between atoms: _305  and  _307
REMARK  125  A    between atoms: _307  and  _308
REMARK  126  A    between atoms: _307  and  _310
REMARK  127  A    between atoms: _313  and  _315
REMARK  128  A    between atoms: _315  and  _316
REMARK  129  A    between atoms: _315  and  _318
REMARK  130  A    between atoms: _318  and  _319
REMARK  131  A    between atoms: _322  and  _324
REMARK  132  A    between atoms: _324  and  _325
REMARK  133  A    between atoms: _324  and  _327
REMARK  134  A    between atoms: _327  and  _328
REMARK  135  A    between atoms: _328  and  _329
REMARK  136  A    between atoms: _332  and  _334
REMARK  137  A    between atoms: _334  and  _335
REMARK  138  A    between atoms: _334  and  _337
REMARK  139  A    between atoms: _337  and  _338
REMARK  140  A    between atoms: _338  and  _339
REMARK  141  A    between atoms: _341  and  _343
REMARK  142  A    between atoms: _343  and  _344
REMARK  143  A    between atoms: _343  and  _346
REMARK  144  A    between atoms: _346  and  _347
REMARK  145  A    between atoms: _350  and  _352
REMARK  146  A    between atoms: _352  and  _353
REMARK  147  A    between atoms: _355  and  _357
REMARK  148  A    between atoms: _357  and  _358
REMARK  149  A    between atoms: _360  and  _362
REMARK  150  A    between atoms: _362  and  _363
REMARK  151  A    between atoms: _362  and  _365
REMARK  152  A    between atoms: _365  and  _366
REMARK  153  A    between atoms: _369  and  _371
REMARK  154  A    between atoms: _371  and  _372
REMARK  155  A    between atoms: _374  and  _376
REMARK  156  A    between atoms: _376  and  _377
REMARK  157  A    between atoms: _376  and  _379
REMARK  158  A    between atoms: _379  and  _380
REMARK  159  A    between atoms: _386  and  _388
REMARK  160  A    between atoms: _388  and  _389
REMARK  161  A    between atoms: _388  and  _391
REMARK  162  A    between atoms: _391  and  _392
REMARK  163  A    between atoms: _395  and  _397
REMARK  164  A    between atoms: _397  and  _398
REMARK  165  A    between atoms: _397  and  _400
REMARK  166  A    between atoms: _400  and  _401
REMARK  167  A    between atoms: _401  and  _402
REMARK  168  A    between atoms: _402  and  _403
REMARK  169  A    between atoms: _403  and  _404
REMARK  170  A    between atoms: _408  and  _410
REMARK  171  A    between atoms: _410  and  _411
REMARK  172  A    between atoms: _410  and  _413
REMARK  173  A    between atoms: _416  and  _418
REMARK  174  A    between atoms: _418  and  _419
REMARK  175  A    between atoms: _418  and  _421
REMARK  176  A    between atoms: _421  and  _422
REMARK  177  A    between atoms: _422  and  _423
REMARK  178  A    between atoms: _423  and  _424
REMARK  179  A    between atoms: _433  and  _435
REMARK  180  A    between atoms: _435  and  _436
REMARK  181  A    between atoms: _435  and  _438
REMARK  182  A    between atoms: _438  and  _439
REMARK  183  A    between atoms: _442  and  _444
REMARK  184  A    between atoms: _444  and  _445
REMARK  185  A    between atoms: _444  and  _447
REMARK  186  A    between atoms: _450  and  _452
REMARK  187  A    between atoms: _452  and  _453
REMARK  188  A    between atoms: _456  and  _457
REMARK  189  A    between atoms: _462  and  _464
REMARK  190  A    between atoms: _464  and  _465
REMARK  191  A    between atoms: _464  and  _467
REMARK  192  A    between atoms: _467  and  _468
REMARK  193  A    between atoms: _472  and  _473
REMARK  194  A    between atoms: _478  and  _480
REMARK  195  A    between atoms: _480  and  _481
REMARK  196  A    between atoms: _480  and  _483
REMARK  197  A    between atoms: _486  and  _488
REMARK  198  A    between atoms: _488  and  _489
REMARK  199  A    between atoms: _488  and  _491
REMARK  200  A    between atoms: _491  and  _492
REMARK  201  A    between atoms: _497  and  _499
REMARK  202  A    between atoms: _499  and  _500
REMARK  203  A    between atoms: _499  and  _502
REMARK  204  A    between atoms: _502  and  _503
REMARK                            x       y       z     vdW  Elec       q    Type
REMARK                         _______ _______ _______ _____ _____    ______ ____
ROOT
ATOM      1  O   HOH     1      67.270  32.825  12.964  0.00  0.00    +0.000 OA
ENDROOT
TORSDOF 0
REMARK  Name = ../refined-set-2016/1aid/1aid_pocket.pdb
REMARK  204 active torsions:
REMARK  status: ('A' for Active; 'I' for Inactive)
REMARK    1  A    between atoms: _1  and  _3
REMARK    2  A    between atoms: _3  and  _4
REMARK    3  A    between atoms: _3  and  _6
REMARK    4  A    between atoms: _6  and  _7
REMARK    5  A    between atoms: _10  and  _12
REMARK    6  A    between atoms: _12  and  _13
REMARK    7  A    between atoms: _15  and  _17
REMARK    8  A    between atoms: _17  and  _18
REMARK    9  A    between atoms: _21  and  _23
REMARK   10  A    between atoms: _23  and  _24
REMARK   11  A    between atoms: _23  and  _26
REMARK   12  A    between atoms: _26  and  _27
REMARK   13  A    between atoms: _30  and  _32
REMARK   14  A    between atoms: _32  and  _33
REMARK   15  A    between atoms: _32  and  _35
REMARK   16  A    between atoms: _35  and  _36
REMARK   17  A    between atoms: _39  and  _41
REMARK   18  A    between atoms: _41  and  _42
REMARK   19  A    between atoms: _41  and  _44
REMARK   20  A    between atoms: _44  and  _45
REMARK   21  A    between atoms: _48  and  _50
REMARK   22  A    between atoms: _50  and  _51
REMARK   23  A    between atoms: _50  and  _53
REMARK   24  A    between atoms: _56  and  _58
REMARK   25  A    between atoms: _58  and  _59
REMARK   26  A    between atoms: _58  and  _61
REMARK   27  A    between atoms: _61  and  _62
REMARK   28  A    between atoms: _65  and  _67
REMARK   29  A    between atoms: _67  and  _68
REMARK   30  A    between atoms: _67  and  _70
REMARK   31  A    between atoms: _70  and  _71
REMARK   32  A    between atoms: _71  and  _72
REMARK   33  A    between atoms: _72  and  _73
REMARK   34  A    between atoms: _73  and  _74
REMARK   35  A    between atoms: _78  and  _80
REMARK   36  A    between atoms: _80  and  _81
REMARK   37  A    between atoms: _80  and  _83
REMARK   38  A    between atoms: _83  and  _84
REMARK   39  A    between atoms: _84  and  _85
REMARK   40  A    between atoms: _87  and  _89
REMARK   41  A    between atoms: _89  and  _90
REMARK   42  A    between atoms: _89  and  _92
REMARK   43  A    between atoms: _92  and  _93
REMARK   44  A    between atoms: _96  and  _98
REMARK   45  A    between atoms: _98  and  _99
REMARK   46  A    between atoms: _101  and  _103
REMARK   47  A    between atoms: _103  and  _104
REMARK   48  A    between atoms: _106  and  _108
REMARK   49  A    between atoms: _108  and  _109
REMARK   50  A    between atoms: _108  and  _111
REMARK   51  A    between atoms: _111  and  _112
REMARK   52  A    between atoms: _115  and  _117
REMARK   53  A    between atoms: _117  and  _118
REMARK   54  A    between atoms: _120  and  _122
REMARK   55  A    between atoms: _122  and  _123
REMARK   56  A    between atoms: _125  and  _127
REMARK   57  A    between atoms: _127  and  _128
REMARK   58  A    between atoms: _127  and  _130
REMARK   59  A    between atoms: _130  and  _131
REMARK   60  A    between atoms: _137  and  _139
REMARK   61  A    between atoms: _139  and  _140
REMARK   62  A    between atoms: _139  and  _142
REMARK   63  A    between atoms: _142  and  _143
REMARK   64  A    between atoms: _146  and  _148
REMARK   65  A    between atoms: _148  and  _149
REMARK   66  A    between atoms: _148  and  _151
REMARK   67  A    between atoms: _154  and  _156
REMARK   68  A    between atoms: _156  and  _157
REMARK   69  A    between atoms: _156  and  _159
REMARK   70  A    between atoms: _159  and  _160
REMARK   71  A    between atoms: _163  and  _165
REMARK   72  A    between atoms: _165  and  _166
REMARK   73  A    between atoms: _169  and  _170
REMARK   74  A    between atoms: _175  and  _177
REMARK   75  A    between atoms: _177  and  _178
REMARK   76  A    between atoms: _177  and  _180
REMARK   77  A    between atoms: _180  and  _181
REMARK   78  A    between atoms: _185  and  _186
REMARK   79  A    between atoms: _191  and  _193
REMARK   80  A    between atoms: _193  and  _194
REMARK   81  A    between atoms: _193  and  _196
REMARK   82  A    between atoms: _199  and  _201
REMARK   83  A    between atoms: _201  and  _202
REMARK   84  A    between atoms: _201  and  _204
REMARK   85  A    between atoms: _204  and  _205
REMARK   86  A    between atoms: _210  and  _212
REMARK   87  A    between atoms: _212  and  _213
REMARK   88  A    between atoms: _212  and  _215
REMARK   89  A    between atoms: _215  and  _216
REMARK   90  A    between atoms: _219  and  _221
REMARK   91  A    between atoms: _221  and  _222
REMARK   92  A    between atoms: _221  and  _224
REMARK   93  A    between atoms: _224  and  _225
REMARK   94  A    between atoms: _228  and  _230
REMARK   95  A    between atoms: _230  and  _231
REMARK   96  A    between atoms: _233  and  _235
REMARK   97  A    between atoms: _235  and  _236
REMARK   98  A    between atoms: _235  and  _238
REMARK   99  A    between atoms: _238  and  _239
REMARK  100  A    between atoms: _239  and  _240
REMARK  101  A    between atoms: _240  and  _241
REMARK  102  A    between atoms: _250  and  _252
REMARK  103  A    between atoms: _252  and  _253
REMARK  104  A    between atoms: _252  and  _255
REMARK  105  A    between atoms: _255  and  _256
REMARK  106  A    between atoms: _256  and  _257
REMARK  107  A    between atoms: _257  and  _258
REMARK  108  A    between atoms: _267  and  _269
REMARK  109  A    between atoms: _269  and  _270
REMARK  110  A    between atoms: _269  and  _272
REMARK  111  A    between atoms: _272  and  _273
REMARK  112  A    between atoms: _276  and  _278
REMARK  113  A    between atoms: _278  and  _279
REMARK  114  A    between atoms: _281  and  _283
REMARK  115  A    between atoms: _283  and  _284
REMARK  116  A    between atoms: _287  and  _289
REMARK  117  A    between atoms: _289  and  _290
REMARK  118  A    between atoms: _289  and  _292
REMARK  119  A    between atoms: _292  and  _293
REMARK  120  A    between atoms: _296  and  _298
REMARK  121  A    between atoms: _298  and  _299
REMARK  122  A    between atoms: _298  and  _301
REMARK  123  A    between atoms: _301  and  _302
REMARK  124  A    between atoms: _305  and  _307
REMARK  125  A    between atoms: _307  and  _308
REMARK  126  A    between atoms: _307  and  _310
REMARK  127  A    between atoms: _313  and  _315
REMARK  128  A    between atoms: _315  and  _316
REMARK  129  A    between atoms: _315  and  _318
REMARK  130  A    between atoms: _318  and  _319
REMARK  131  A    between atoms: _322  and  _324
REMARK  132  A    between atoms: _324  and  _325
REMARK  133  A    between atoms: _324  and  _327
REMARK  134  A    between atoms: _327  and  _328
REMARK  135  A    between atoms: _328  and  _329
REMARK  136  A    between atoms: _332  and  _334
REMARK  137  A    between atoms: _334  and  _335
REMARK  138  A    between atoms: _334  and  _337
REMARK  139  A    between atoms: _337  and  _338
REMARK  140  A    between atoms: _338  and  _339
REMARK  141  A    between atoms: _341  and  _343
REMARK  142  A    between atoms: _343  and  _344
REMARK  143  A    between atoms: _343  and  _346
REMARK  144  A    between atoms: _346  and  _347
REMARK  145  A    between atoms: _350  and  _352
REMARK  146  A    between atoms: _352  and  _353
REMARK  147  A    between atoms: _355  and  _357
REMARK  148  A    between atoms: _357  and  _358
REMARK  149  A    between atoms: _360  and  _362
REMARK  150  A    between atoms: _362  and  _363
REMARK  151  A    between atoms: _362  and  _365
REMARK  152  A    between atoms: _365  and  _366
REMARK  153  A    between atoms: _369  and  _371
REMARK  154  A    between atoms: _371  and  _372
REMARK  155  A    between atoms: _374  and  _376
REMARK  156  A    between atoms: _376  and  _377
REMARK  157  A    between atoms: _376  and  _379
REMARK  158  A    between atoms: _379  and  _380
REMARK  159  A    between atoms: _386  and  _388
REMARK  160  A    between atoms: _388  and  _389
REMARK  161  A    between atoms: _388  and  _391
REMARK  162  A    between atoms: _391  and  _392
REMARK  163  A    between atoms: _395  and  _397
REMARK  164  A    between atoms: _397  and  _398
REMARK  165  A    between atoms: _397  and  _400
REMARK  166  A    between atoms: _400  and  _401
REMARK  167  A    between atoms: _401  and  _402
REMARK  168  A    between atoms: _402  and  _403
REMARK  169  A    between atoms: _403  and  _404
REMARK  170  A    between atoms: _408  and  _410
REMARK  171  A    between atoms: _410  and  _411
REMARK  172  A    between atoms: _410  and  _413
REMARK  173  A    between atoms: _416  and  _418
REMARK  174  A    between atoms: _418  and  _419
REMARK  175  A    between atoms: _418  and  _421
REMARK  176  A    between atoms: _421  and  _422
REMARK  177  A    between atoms: _422  and  _423
REMARK  178  A    between atoms: _423  and  _424
REMARK  179  A    between atoms: _433  and  _435
REMARK  180  A    between atoms: _435  and  _436
REMARK  181  A    between atoms: _435  and  _438
REMARK  182  A    between atoms: _438  and  _439
REMARK  183  A    between atoms: _442  and  _444
REMARK  184  A    between atoms: _444  and  _445
REMARK  185  A    between atoms: _444  and  _447
REMARK  186  A    between atoms: _450  and  _452
REMARK  187  A    between atoms: _452  and  _453
REMARK  188  A    between atoms: _456  and  _457
REMARK  189  A    between atoms: _462  and  _464
REMARK  190  A    between atoms: _464  and  _465
REMARK  191  A    between atoms: _464  and  _467
REMARK  192  A    between atoms: _467  and  _468
REMARK  193  A    between atoms: _472  and  _473
REMARK  194  A    between atoms: _478  and  _480
REMARK  195  A    between atoms: _480  and  _481
REMARK  196  A    between atoms: _480  and  _483
REMARK  197  A    between atoms: _486  and  _488
REMARK  198  A    between atoms: _488  and  _489
REMARK  199  A    between atoms: _488  and  _491
REMARK  200  A    between atoms: _491  and  _492
REMARK  201  A    between atoms: _497  and  _499
REMARK  202  A    between atoms: _499  and  _500
REMARK  203  A    between atoms: _499  and  _502
REMARK  204  A    between atoms: _502  and  _503
REMARK                            x       y       z     vdW  Elec       q    Type
REMARK                         _______ _______ _______ _____ _____    ______ ____
ROOT
ATOM      1  O   HOH     1      55.704  43.304   4.655  0.00  0.00    +0.000 OA
ENDROOT
TORSDOF 0
