REMARK  Name = ../refined-set-2016/2za5/2za5_pocket.pdb
REMARK  222 active torsions:
REMARK  status: ('A' for Active; 'I' for Inactive)
REMARK    1  A    between atoms: _1  and  _5
REMARK    2  A    between atoms: _5  and  _6
REMARK    3  A    between atoms: _5  and  _8
REMARK    4  A    between atoms: _8  and  _9
REMARK    5  A    between atoms: _12  and  _14
REMARK    6  A    between atoms: _14  and  _15
REMARK    7  A    between atoms: _14  and  _17
REMARK    8  A    between atoms: _20  and  _22
REMARK    9  A    between atoms: _22  and  _23
REMARK   10  A    between atoms: _22  and  _25
REMARK   11  A    between atoms: _27  and  _29
REMARK   12  A    between atoms: _29  and  _30
REMARK   13  A    between atoms: _29  and  _32
REMARK   14  A    between atoms: _32  and  _33
REMARK   15  A    between atoms: _38  and  _40
REMARK   16  A    between atoms: _40  and  _41
REMARK   17  A    between atoms: _44  and  _46
REMARK   18  A    between atoms: _46  and  _47
REMARK   19  A    between atoms: _46  and  _49
REMARK   20  A    between atoms: _49  and  _50
REMARK   21  A    between atoms: _50  and  _51
REMARK   22  A    between atoms: _56  and  _58
REMARK   23  A    between atoms: _58  and  _59
REMARK   24  A    between atoms: _58  and  _61
REMARK   25  A    between atoms: _64  and  _66
REMARK   26  A    between atoms: _66  and  _67
REMARK   27  A    between atoms: _66  and  _69
REMARK   28  A    between atoms: _69  and  _70
REMARK   29  A    between atoms: _73  and  _75
REMARK   30  A    between atoms: _75  and  _76
REMARK   31  A    between atoms: _75  and  _78
REMARK   32  A    between atoms: _78  and  _79
REMARK   33  A    between atoms: _84  and  _86
REMARK   34  A    between atoms: _86  and  _87
REMARK   35  A    between atoms: _86  and  _89
REMARK   36  A    between atoms: _89  and  _90
REMARK   37  A    between atoms: _93  and  _95
REMARK   38  A    between atoms: _95  and  _96
REMARK   39  A    between atoms: _95  and  _98
REMARK   40  A    between atoms: _98  and  _99
REMARK   41  A    between atoms: _102  and  _104
REMARK   42  A    between atoms: _104  and  _105
REMARK   43  A    between atoms: _104  and  _107
REMARK   44  A    between atoms: _107  and  _108
REMARK   45  A    between atoms: _108  and  _109
REMARK   46  A    between atoms: _109  and  _110
REMARK   47  A    between atoms: _110  and  _111
REMARK   48  A    between atoms: _115  and  _117
REMARK   49  A    between atoms: _117  and  _118
REMARK   50  A    between atoms: _117  and  _120
REMARK   51  A    between atoms: _120  and  _121
REMARK   52  A    between atoms: _126  and  _127
REMARK   53  A    between atoms: _129  and  _131
REMARK   54  A    between atoms: _131  and  _132
REMARK   55  A    between atoms: _131  and  _134
REMARK   56  A    between atoms: _134  and  _135
REMARK   57  A    between atoms: _140  and  _142
REMARK   58  A    between atoms: _142  and  _143
REMARK   59  A    between atoms: _142  and  _145
REMARK   60  A    between atoms: _145  and  _146
REMARK   61  A    between atoms: _149  and  _151
REMARK   62  A    between atoms: _151  and  _152
REMARK   63  A    between atoms: _154  and  _156
REMARK   64  A    between atoms: _156  and  _157
REMARK   65  A    between atoms: _160  and  _162
REMARK   66  A    between atoms: _162  and  _163
REMARK   67  A    between atoms: _162  and  _165
REMARK   68  A    between atoms: _165  and  _166
REMARK   69  A    between atoms: _171  and  _172
REMARK   70  A    between atoms: _174  and  _176
REMARK   71  A    between atoms: _176  and  _177
REMARK   72  A    between atoms: _176  and  _179
REMARK   73  A    between atoms: _179  and  _180
REMARK   74  A    between atoms: _183  and  _185
REMARK   75  A    between atoms: _185  and  _186
REMARK   76  A    between atoms: _185  and  _188
REMARK   77  A    between atoms: _191  and  _193
REMARK   78  A    between atoms: _193  and  _194
REMARK   79  A    between atoms: _193  and  _196
REMARK   80  A    between atoms: _196  and  _197
REMARK   81  A    between atoms: _197  and  _198
REMARK   82  A    between atoms: _198  and  _199
REMARK   83  A    between atoms: _208  and  _210
REMARK   84  A    between atoms: _210  and  _211
REMARK   85  A    between atoms: _210  and  _213
REMARK   86  A    between atoms: _213  and  _214
REMARK   87  A    between atoms: _217  and  _219
REMARK   88  A    between atoms: _219  and  _220
REMARK   89  A    between atoms: _219  and  _222
REMARK   90  A    between atoms: _225  and  _227
REMARK   91  A    between atoms: _227  and  _228
REMARK   92  A    between atoms: _231  and  _233
REMARK   93  A    between atoms: _233  and  _234
REMARK   94  A    between atoms: _236  and  _238
REMARK   95  A    between atoms: _238  and  _239
REMARK   96  A    between atoms: _238  and  _241
REMARK   97  A    between atoms: _241  and  _242
REMARK   98  A    between atoms: _247  and  _249
REMARK   99  A    between atoms: _249  and  _250
REMARK  100  A    between atoms: _249  and  _252
REMARK  101  A    between atoms: _252  and  _253
REMARK  102  A    between atoms: _253  and  _254
REMARK  103  A    between atoms: _254  and  _255
REMARK  104  A    between atoms: _264  and  _266
REMARK  105  A    between atoms: _266  and  _267
REMARK  106  A    between atoms: _266  and  _269
REMARK  107  A    between atoms: _269  and  _270
REMARK  108  A    between atoms: _273  and  _275
REMARK  109  A    between atoms: _275  and  _276
REMARK  110  A    between atoms: _275  and  _278
REMARK  111  A    between atoms: _278  and  _279
REMARK  112  A    between atoms: _281  and  _283
REMARK  113  A    between atoms: _283  and  _284
REMARK  114  A    between atoms: _283  and  _286
REMARK  115  A    between atoms: _286  and  _287
REMARK  116  A    between atoms: _287  and  _390
REMARK  117  A    between atoms: _288  and  _290
REMARK  118  A    between atoms: _290  and  _291
REMARK  119  A    between atoms: _290  and  _293
REMARK  120  A    between atoms: _293  and  _294
REMARK  121  A    between atoms: _294  and  _295
REMARK  122  A    between atoms: _300  and  _302
REMARK  123  A    between atoms: _302  and  _303
REMARK  124  A    between atoms: _305  and  _307
REMARK  125  A    between atoms: _307  and  _308
REMARK  126  A    between atoms: _307  and  _310
REMARK  127  A    between atoms: _310  and  _311
REMARK  128  A    between atoms: _314  and  _316
REMARK  129  A    between atoms: _316  and  _317
REMARK  130  A    between atoms: _316  and  _319
REMARK  131  A    between atoms: _319  and  _320
REMARK  132  A    between atoms: _322  and  _324
REMARK  133  A    between atoms: _324  and  _325
REMARK  134  A    between atoms: _327  and  _329
REMARK  135  A    between atoms: _329  and  _330
REMARK  136  A    between atoms: _332  and  _334
REMARK  137  A    between atoms: _334  and  _335
REMARK  138  A    between atoms: _334  and  _337
REMARK  139  A    between atoms: _340  and  _342
REMARK  140  A    between atoms: _342  and  _343
REMARK  141  A    between atoms: _342  and  _345
REMARK  142  A    between atoms: _345  and  _346
REMARK  143  A    between atoms: _348  and  _350
REMARK  144  A    between atoms: _350  and  _351
REMARK  145  A    between atoms: _350  and  _353
REMARK  146  A    between atoms: _353  and  _354
REMARK  147  A    between atoms: _364  and  _366
REMARK  148  A    between atoms: _366  and  _367
REMARK  149  A    between atoms: _369  and  _371
REMARK  150  A    between atoms: _371  and  _372
REMARK  151  A    between atoms: _371  and  _374
REMARK  152  A    between atoms: _374  and  _375
REMARK  153  A    between atoms: _375  and  _376
REMARK  154  A    between atoms: _379  and  _381
REMARK  155  A    between atoms: _381  and  _382
REMARK  156  A    between atoms: _384  and  _386
REMARK  157  A    between atoms: _386  and  _387
REMARK  158  A    between atoms: _386  and  _389
REMARK  159  A    between atoms: _389  and  _390
REMARK  160  A    between atoms: _391  and  _393
REMARK  161  A    between atoms: _393  and  _394
REMARK  162  A    between atoms: _397  and  _399
REMARK  163  A    between atoms: _399  and  _400
REMARK  164  A    between atoms: _399  and  _402
REMARK  165  A    between atoms: _402  and  _403
REMARK  166  A    between atoms: _403  and  _404
REMARK  167  A    between atoms: _409  and  _411
REMARK  168  A    between atoms: _411  and  _412
REMARK  169  A    between atoms: _411  and  _414
REMARK  170  A    between atoms: _414  and  _415
REMARK  171  A    between atoms: _420  and  _422
REMARK  172  A    between atoms: _422  and  _423
REMARK  173  A    between atoms: _422  and  _425
REMARK  174  A    between atoms: _425  and  _426
REMARK  175  A    between atoms: _426  and  _427
REMARK  176  A    between atoms: _427  and  _428
REMARK  177  A    between atoms: _438  and  _439
REMARK  178  A    between atoms: _444  and  _446
REMARK  179  A    between atoms: _446  and  _447
REMARK  180  A    between atoms: _449  and  _451
REMARK  181  A    between atoms: _451  and  _452
REMARK  182  A    between atoms: _451  and  _454
REMARK  183  A    between atoms: _454  and  _455
REMARK  184  A    between atoms: _458  and  _460
REMARK  185  A    between atoms: _460  and  _461
REMARK  186  A    between atoms: _460  and  _463
REMARK  187  A    between atoms: _463  and  _464
REMARK  188  A    between atoms: _469  and  _470
REMARK  189  A    between atoms: _472  and  _474
REMARK  190  A    between atoms: _474  and  _475
REMARK  191  A    between atoms: _478  and  _479
REMARK  192  A    between atoms: _484  and  _486
REMARK  193  A    between atoms: _486  and  _487
REMARK  194  A    between atoms: _486  and  _489
REMARK  195  A    between atoms: _489  and  _490
REMARK  196  A    between atoms: _493  and  _495
REMARK  197  A    between atoms: _495  and  _496
REMARK  198  A    between atoms: _495  and  _498
REMARK  199  A    between atoms: _501  and  _503
REMARK  200  A    between atoms: _503  and  _504
REMARK  201  A    between atoms: _503  and  _506
REMARK  202  A    between atoms: _506  and  _507
REMARK  203  A    between atoms: _513  and  _515
REMARK  204  A    between atoms: _515  and  _516
REMARK  205  A    between atoms: _515  and  _518
REMARK  206  A    between atoms: _518  and  _519
REMARK  207  A    between atoms: _524  and  _525
REMARK  208  A    between atoms: _527  and  _529
REMARK  209  A    between atoms: _529  and  _530
REMARK  210  A    between atoms: _529  and  _532
REMARK  211  A    between atoms: _532  and  _533
REMARK  212  A    between atoms: _536  and  _538
REMARK  213  A    between atoms: _538  and  _539
REMARK  214  A    between atoms: _542  and  _544
REMARK  215  A    between atoms: _544  and  _545
REMARK  216  A    between atoms: _544  and  _547
REMARK  217  A    between atoms: _547  and  _548
REMARK  218  A    between atoms: _548  and  _549
REMARK  219  A    between atoms: _554  and  _556
REMARK  220  A    between atoms: _556  and  _557
REMARK  221  A    between atoms: _556  and  _559
REMARK  222  A    between atoms: _559  and  _560
REMARK                            x       y       z     vdW  Elec       q    Type
REMARK                         _______ _______ _______ _____ _____    ______ ____
ROOT
ATOM      1  C   ILE A   1      15.330  84.915  79.857  0.00  0.00    +0.202 C 
ATOM      2  O   ILE A   1      15.367  86.126  79.746  0.00  0.00    -0.277 OA
ATOM      3  N   VAL A   2      15.778  84.098  78.910  0.00  0.00    -0.301 N 
ATOM      4  H   VAL A   2      15.744  83.071  79.070  0.00  0.00    +0.150 HD
ENDROOT
BRANCH   1   5
ATOM      5  CA  ILE A   1      14.779  84.276  81.130  0.00  0.00    +0.013 C 
BRANCH   5   6
ATOM      6  N   ILE A   1      15.435  84.844  82.305  0.00  0.00    +0.387 N 
ATOM      7  H1  ILE A   1      15.051  84.400  83.164  0.00  0.00    -0.089 HD
ATOM      8  H2  ILE A   1      15.262  85.869  82.336  0.00  0.00    -0.089 HD
ATOM      9  H3  ILE A   1      16.458  84.666  82.249  0.00  0.00    -0.089 HD
ENDBRANCH   5   6
BRANCH   5  10
ATOM     10  CB  ILE A   1      13.243  84.473  81.197  0.00  0.00    -0.011 C 
ATOM     11  CG2 ILE A   1      12.577  84.035  79.918  0.00  0.00    -0.002 C 
BRANCH  10  12
ATOM     12  CG1 ILE A   1      12.656  83.717  82.391  0.00  0.00    -0.002 C 
ATOM     13  CD1 ILE A   1      12.911  82.222  82.370  0.00  0.00    -0.000 C 
ENDBRANCH  10  12
ENDBRANCH   5  10
ENDBRANCH   1   5
BRANCH   3  14
ATOM     14  CA  VAL A   2      16.315  84.603  77.655  0.00  0.00    +0.137 C 
BRANCH  14  15
ATOM     15  CB  VAL A   2      17.575  83.807  77.223  0.00  0.00    +0.026 C 
ATOM     16  CG2 VAL A   2      18.659  83.898  78.291  0.00  0.00    +0.002 C 
ATOM     17  CG1 VAL A   2      18.094  84.314  75.887  0.00  0.00    +0.002 C 
ENDBRANCH  14  15
BRANCH  14  18
ATOM     18  C   VAL A   2      15.244  84.540  76.557  0.00  0.00    +0.227 C 
ATOM     19  O   VAL A   2      14.565  83.528  76.388  0.00  0.00    -0.286 OA
ENDBRANCH  14  18
ENDBRANCH   3  14
TORSDOF 7
REMARK  Name = ../refined-set-2016/2za5/2za5_pocket.pdb
REMARK  222 active torsions:
REMARK  status: ('A' for Active; 'I' for Inactive)
REMARK    1  A    between atoms: _1  and  _5
REMARK    2  A    between atoms: _5  and  _6
REMARK    3  A    between atoms: _5  and  _8
REMARK    4  A    between atoms: _8  and  _9
REMARK    5  A    between atoms: _12  and  _14
REMARK    6  A    between atoms: _14  and  _15
REMARK    7  A    between atoms: _14  and  _17
REMARK    8  A    between atoms: _20  and  _22
REMARK    9  A    between atoms: _22  and  _23
REMARK   10  A    between atoms: _22  and  _25
REMARK   11  A    between atoms: _27  and  _29
REMARK   12  A    between atoms: _29  and  _30
REMARK   13  A    between atoms: _29  and  _32
REMARK   14  A    between atoms: _32  and  _33
REMARK   15  A    between atoms: _38  and  _40
REMARK   16  A    between atoms: _40  and  _41
REMARK   17  A    between atoms: _44  and  _46
REMARK   18  A    between atoms: _46  and  _47
REMARK   19  A    between atoms: _46  and  _49
REMARK   20  A    between atoms: _49  and  _50
REMARK   21  A    between atoms: _50  and  _51
REMARK   22  A    between atoms: _56  and  _58
REMARK   23  A    between atoms: _58  and  _59
REMARK   24  A    between atoms: _58  and  _61
REMARK   25  A    between atoms: _64  and  _66
REMARK   26  A    between atoms: _66  and  _67
REMARK   27  A    between atoms: _66  and  _69
REMARK   28  A    between atoms: _69  and  _70
REMARK   29  A    between atoms: _73  and  _75
REMARK   30  A    between atoms: _75  and  _76
REMARK   31  A    between atoms: _75  and  _78
REMARK   32  A    between atoms: _78  and  _79
REMARK   33  A    between atoms: _84  and  _86
REMARK   34  A    between atoms: _86  and  _87
REMARK   35  A    between atoms: _86  and  _89
REMARK   36  A    between atoms: _89  and  _90
REMARK   37  A    between atoms: _93  and  _95
REMARK   38  A    between atoms: _95  and  _96
REMARK   39  A    between atoms: _95  and  _98
REMARK   40  A    between atoms: _98  and  _99
REMARK   41  A    between atoms: _102  and  _104
REMARK   42  A    between atoms: _104  and  _105
REMARK   43  A    between atoms: _104  and  _107
REMARK   44  A    between atoms: _107  and  _108
REMARK   45  A    between atoms: _108  and  _109
REMARK   46  A    between atoms: _109  and  _110
REMARK   47  A    between atoms: _110  and  _111
REMARK   48  A    between atoms: _115  and  _117
REMARK   49  A    between atoms: _117  and  _118
REMARK   50  A    between atoms: _117  and  _120
REMARK   51  A    between atoms: _120  and  _121
REMARK   52  A    between atoms: _126  and  _127
REMARK   53  A    between atoms: _129  and  _131
REMARK   54  A    between atoms: _131  and  _132
REMARK   55  A    between atoms: _131  and  _134
REMARK   56  A    between atoms: _134  and  _135
REMARK   57  A    between atoms: _140  and  _142
REMARK   58  A    between atoms: _142  and  _143
REMARK   59  A    between atoms: _142  and  _145
REMARK   60  A    between atoms: _145  and  _146
REMARK   61  A    between atoms: _149  and  _151
REMARK   62  A    between atoms: _151  and  _152
REMARK   63  A    between atoms: _154  and  _156
REMARK   64  A    between atoms: _156  and  _157
REMARK   65  A    between atoms: _160  and  _162
REMARK   66  A    between atoms: _162  and  _163
REMARK   67  A    between atoms: _162  and  _165
REMARK   68  A    between atoms: _165  and  _166
REMARK   69  A    between atoms: _171  and  _172
REMARK   70  A    between atoms: _174  and  _176
REMARK   71  A    between atoms: _176  and  _177
REMARK   72  A    between atoms: _176  and  _179
REMARK   73  A    between atoms: _179  and  _180
REMARK   74  A    between atoms: _183  and  _185
REMARK   75  A    between atoms: _185  and  _186
REMARK   76  A    between atoms: _185  and  _188
REMARK   77  A    between atoms: _191  and  _193
REMARK   78  A    between atoms: _193  and  _194
REMARK   79  A    between atoms: _193  and  _196
REMARK   80  A    between atoms: _196  and  _197
REMARK   81  A    between atoms: _197  and  _198
REMARK   82  A    between atoms: _198  and  _199
REMARK   83  A    between atoms: _208  and  _210
REMARK   84  A    between atoms: _210  and  _211
REMARK   85  A    between atoms: _210  and  _213
REMARK   86  A    between atoms: _213  and  _214
REMARK   87  A    between atoms: _217  and  _219
REMARK   88  A    between atoms: _219  and  _220
REMARK   89  A    between atoms: _219  and  _222
REMARK   90  A    between atoms: _225  and  _227
REMARK   91  A    between atoms: _227  and  _228
REMARK   92  A    between atoms: _231  and  _233
REMARK   93  A    between atoms: _233  and  _234
REMARK   94  A    between atoms: _236  and  _238
REMARK   95  A    between atoms: _238  and  _239
REMARK   96  A    between atoms: _238  and  _241
REMARK   97  A    between atoms: _241  and  _242
REMARK   98  A    between atoms: _247  and  _249
REMARK   99  A    between atoms: _249  and  _250
REMARK  100  A    between atoms: _249  and  _252
REMARK  101  A    between atoms: _252  and  _253
REMARK  102  A    between atoms: _253  and  _254
REMARK  103  A    between atoms: _254  and  _255
REMARK  104  A    between atoms: _264  and  _266
REMARK  105  A    between atoms: _266  and  _267
REMARK  106  A    between atoms: _266  and  _269
REMARK  107  A    between atoms: _269  and  _270
REMARK  108  A    between atoms: _273  and  _275
REMARK  109  A    between atoms: _275  and  _276
REMARK  110  A    between atoms: _275  and  _278
REMARK  111  A    between atoms: _278  and  _279
REMARK  112  A    between atoms: _281  and  _283
REMARK  113  A    between atoms: _283  and  _284
REMARK  114  A    between atoms: _283  and  _286
REMARK  115  A    between atoms: _286  and  _287
REMARK  116  A    between atoms: _287  and  _390
REMARK  117  A    between atoms: _288  and  _290
REMARK  118  A    between atoms: _290  and  _291
REMARK  119  A    between atoms: _290  and  _293
REMARK  120  A    between atoms: _293  and  _294
REMARK  121  A    between atoms: _294  and  _295
REMARK  122  A    between atoms: _300  and  _302
REMARK  123  A    between atoms: _302  and  _303
REMARK  124  A    between atoms: _305  and  _307
REMARK  125  A    between atoms: _307  and  _308
REMARK  126  A    between atoms: _307  and  _310
REMARK  127  A    between atoms: _310  and  _311
REMARK  128  A    between atoms: _314  and  _316
REMARK  129  A    between atoms: _316  and  _317
REMARK  130  A    between atoms: _316  and  _319
REMARK  131  A    between atoms: _319  and  _320
REMARK  132  A    between atoms: _322  and  _324
REMARK  133  A    between atoms: _324  and  _325
REMARK  134  A    between atoms: _327  and  _329
REMARK  135  A    between atoms: _329  and  _330
REMARK  136  A    between atoms: _332  and  _334
REMARK  137  A    between atoms: _334  and  _335
REMARK  138  A    between atoms: _334  and  _337
REMARK  139  A    between atoms: _340  and  _342
REMARK  140  A    between atoms: _342  and  _343
REMARK  141  A    between atoms: _342  and  _345
REMARK  142  A    between atoms: _345  and  _346
REMARK  143  A    between atoms: _348  and  _350
REMARK  144  A    between atoms: _350  and  _351
REMARK  145  A    between atoms: _350  and  _353
REMARK  146  A    between atoms: _353  and  _354
REMARK  147  A    between atoms: _364  and  _366
REMARK  148  A    between atoms: _366  and  _367
REMARK  149  A    between atoms: _369  and  _371
REMARK  150  A    between atoms: _371  and  _372
REMARK  151  A    between atoms: _371  and  _374
REMARK  152  A    between atoms: _374  and  _375
REMARK  153  A    between atoms: _375  and  _376
REMARK  154  A    between atoms: _379  and  _381
REMARK  155  A    between atoms: _381  and  _382
REMARK  156  A    between atoms: _384  and  _386
REMARK  157  A    between atoms: _386  and  _387
REMARK  158  A    between atoms: _386  and  _389
REMARK  159  A    between atoms: _389  and  _390
REMARK  160  A    between atoms: _391  and  _393
REMARK  161  A    between atoms: _393  and  _394
REMARK  162  A    between atoms: _397  and  _399
REMARK  163  A    between atoms: _399  and  _400
REMARK  164  A    between atoms: _399  and  _402
REMARK  165  A    between atoms: _402  and  _403
REMARK  166  A    between atoms: _403  and  _404
REMARK  167  A    between atoms: _409  and  _411
REMARK  168  A    between atoms: _411  and  _412
REMARK  169  A    between atoms: _411  and  _414
REMARK  170  A    between atoms: _414  and  _415
REMARK  171  A    between atoms: _420  and  _422
REMARK  172  A    between atoms: _422  and  _423
REMARK  173  A    between atoms: _422  and  _425
REMARK  174  A    between atoms: _425  and  _426
REMARK  175  A    between atoms: _426  and  _427
REMARK  176  A    between atoms: _427  and  _428
REMARK  177  A    between atoms: _438  and  _439
REMARK  178  A    between atoms: _444  and  _446
REMARK  179  A    between atoms: _446  and  _447
REMARK  180  A    between atoms: _449  and  _451
REMARK  181  A    between atoms: _451  and  _452
REMARK  182  A    between atoms: _451  and  _454
REMARK  183  A    between atoms: _454  and  _455
REMARK  184  A    between atoms: _458  and  _460
REMARK  185  A    between atoms: _460  and  _461
REMARK  186  A    between atoms: _460  and  _463
REMARK  187  A    between atoms: _463  and  _464
REMARK  188  A    between atoms: _469  and  _470
REMARK  189  A    between atoms: _472  and  _474
REMARK  190  A    between atoms: _474  and  _475
REMARK  191  A    between atoms: _478  and  _479
REMARK  192  A    between atoms: _484  and  _486
REMARK  193  A    between atoms: _486  and  _487
REMARK  194  A    between atoms: _486  and  _489
REMARK  195  A    between atoms: _489  and  _490
REMARK  196  A    between atoms: _493  and  _495
REMARK  197  A    between atoms: _495  and  _496
REMARK  198  A    between atoms: _495  and  _498
REMARK  199  A    between atoms: _501  and  _503
REMARK  200  A    between atoms: _503  and  _504
REMARK  201  A    between atoms: _503  and  _506
REMARK  202  A    between atoms: _506  and  _507
REMARK  203  A    between atoms: _513  and  _515
REMARK  204  A    between atoms: _515  and  _516
REMARK  205  A    between atoms: _515  and  _518
REMARK  206  A    between atoms: _518  and  _519
REMARK  207  A    between atoms: _524  and  _525
REMARK  208  A    between atoms: _527  and  _529
REMARK  209  A    between atoms: _529  and  _530
REMARK  210  A    between atoms: _529  and  _532
REMARK  211  A    between atoms: _532  and  _533
REMARK  212  A    between atoms: _536  and  _538
REMARK  213  A    between atoms: _538  and  _539
REMARK  214  A    between atoms: _542  and  _544
REMARK  215  A    between atoms: _544  and  _545
REMARK  216  A    between atoms: _544  and  _547
REMARK  217  A    between atoms: _547  and  _548
REMARK  218  A    between atoms: _548  and  _549
REMARK  219  A    between atoms: _554  and  _556
REMARK  220  A    between atoms: _556  and  _557
REMARK  221  A    between atoms: _556  and  _559
REMARK  222  A    between atoms: _559  and  _560
REMARK                            x       y       z     vdW  Elec       q    Type
REMARK                         _______ _______ _______ _____ _____    ______ ____
ROOT
ATOM      1  CA  CYS A   1      16.583  81.721  93.018  0.00  0.00    +0.145 C 
ENDROOT
BRANCH   1   2
ATOM      2  N   CYS A   1      17.062  82.906  93.747  0.00  0.00    -0.238 NA
ATOM      3  H   CYS A   1      16.461  83.335  94.479  0.00  0.00    +0.142 HD
ENDBRANCH   1   2
BRANCH   1   4
ATOM      4  CB  CYS A   1      17.047  80.435  93.721  0.00  0.00    +0.094 C 
ATOM      5  SG  CYS A   1      18.704  79.795  93.168  0.00  0.00    -0.080 S 
ENDBRANCH   1   4
BRANCH   1   6
ATOM      6  C   CYS A   1      15.064  81.716  92.868  0.00  0.00    +0.225 C 
ATOM      7  O   CYS A   1      14.354  82.407  93.584  0.00  0.00    -0.287 OA
ENDBRANCH   1   6
TORSDOF 3
REMARK  Name = ../refined-set-2016/2za5/2za5_pocket.pdb
REMARK  222 active torsions:
REMARK  status: ('A' for Active; 'I' for Inactive)
REMARK    1  A    between atoms: _1  and  _5
REMARK    2  A    between atoms: _5  and  _6
REMARK    3  A    between atoms: _5  and  _8
REMARK    4  A    between atoms: _8  and  _9
REMARK    5  A    between atoms: _12  and  _14
REMARK    6  A    between atoms: _14  and  _15
REMARK    7  A    between atoms: _14  and  _17
REMARK    8  A    between atoms: _20  and  _22
REMARK    9  A    between atoms: _22  and  _23
REMARK   10  A    between atoms: _22  and  _25
REMARK   11  A    between atoms: _27  and  _29
REMARK   12  A    between atoms: _29  and  _30
REMARK   13  A    between atoms: _29  and  _32
REMARK   14  A    between atoms: _32  and  _33
REMARK   15  A    between atoms: _38  and  _40
REMARK   16  A    between atoms: _40  and  _41
REMARK   17  A    between atoms: _44  and  _46
REMARK   18  A    between atoms: _46  and  _47
REMARK   19  A    between atoms: _46  and  _49
REMARK   20  A    between atoms: _49  and  _50
REMARK   21  A    between atoms: _50  and  _51
REMARK   22  A    between atoms: _56  and  _58
REMARK   23  A    between atoms: _58  and  _59
REMARK   24  A    between atoms: _58  and  _61
REMARK   25  A    between atoms: _64  and  _66
REMARK   26  A    between atoms: _66  and  _67
REMARK   27  A    between atoms: _66  and  _69
REMARK   28  A    between atoms: _69  and  _70
REMARK   29  A    between atoms: _73  and  _75
REMARK   30  A    between atoms: _75  and  _76
REMARK   31  A    between atoms: _75  and  _78
REMARK   32  A    between atoms: _78  and  _79
REMARK   33  A    between atoms: _84  and  _86
REMARK   34  A    between atoms: _86  and  _87
REMARK   35  A    between atoms: _86  and  _89
REMARK   36  A    between atoms: _89  and  _90
REMARK   37  A    between atoms: _93  and  _95
REMARK   38  A    between atoms: _95  and  _96
REMARK   39  A    between atoms: _95  and  _98
REMARK   40  A    between atoms: _98  and  _99
REMARK   41  A    between atoms: _102  and  _104
REMARK   42  A    between atoms: _104  and  _105
REMARK   43  A    between atoms: _104  and  _107
REMARK   44  A    between atoms: _107  and  _108
REMARK   45  A    between atoms: _108  and  _109
REMARK   46  A    between atoms: _109  and  _110
REMARK   47  A    between atoms: _110  and  _111
REMARK   48  A    between atoms: _115  and  _117
REMARK   49  A    between atoms: _117  and  _118
REMARK   50  A    between atoms: _117  and  _120
REMARK   51  A    between atoms: _120  and  _121
REMARK   52  A    between atoms: _126  and  _127
REMARK   53  A    between atoms: _129  and  _131
REMARK   54  A    between atoms: _131  and  _132
REMARK   55  A    between atoms: _131  and  _134
REMARK   56  A    between atoms: _134  and  _135
REMARK   57  A    between atoms: _140  and  _142
REMARK   58  A    between atoms: _142  and  _143
REMARK   59  A    between atoms: _142  and  _145
REMARK   60  A    between atoms: _145  and  _146
REMARK   61  A    between atoms: _149  and  _151
REMARK   62  A    between atoms: _151  and  _152
REMARK   63  A    between atoms: _154  and  _156
REMARK   64  A    between atoms: _156  and  _157
REMARK   65  A    between atoms: _160  and  _162
REMARK   66  A    between atoms: _162  and  _163
REMARK   67  A    between atoms: _162  and  _165
REMARK   68  A    between atoms: _165  and  _166
REMARK   69  A    between atoms: _171  and  _172
REMARK   70  A    between atoms: _174  and  _176
REMARK   71  A    between atoms: _176  and  _177
REMARK   72  A    between atoms: _176  and  _179
REMARK   73  A    between atoms: _179  and  _180
REMARK   74  A    between atoms: _183  and  _185
REMARK   75  A    between atoms: _185  and  _186
REMARK   76  A    between atoms: _185  and  _188
REMARK   77  A    between atoms: _191  and  _193
REMARK   78  A    between atoms: _193  and  _194
REMARK   79  A    between atoms: _193  and  _196
REMARK   80  A    between atoms: _196  and  _197
REMARK   81  A    between atoms: _197  and  _198
REMARK   82  A    between atoms: _198  and  _199
REMARK   83  A    between atoms: _208  and  _210
REMARK   84  A    between atoms: _210  and  _211
REMARK   85  A    between atoms: _210  and  _213
REMARK   86  A    between atoms: _213  and  _214
REMARK   87  A    between atoms: _217  and  _219
REMARK   88  A    between atoms: _219  and  _220
REMARK   89  A    between atoms: _219  and  _222
REMARK   90  A    between atoms: _225  and  _227
REMARK   91  A    between atoms: _227  and  _228
REMARK   92  A    between atoms: _231  and  _233
REMARK   93  A    between atoms: _233  and  _234
REMARK   94  A    between atoms: _236  and  _238
REMARK   95  A    between atoms: _238  and  _239
REMARK   96  A    between atoms: _238  and  _241
REMARK   97  A    between atoms: _241  and  _242
REMARK   98  A    between atoms: _247  and  _249
REMARK   99  A    between atoms: _249  and  _250
REMARK  100  A    between atoms: _249  and  _252
REMARK  101  A    between atoms: _252  and  _253
REMARK  102  A    between atoms: _253  and  _254
REMARK  103  A    between atoms: _254  and  _255
REMARK  104  A    between atoms: _264  and  _266
REMARK  105  A    between atoms: _266  and  _267
REMARK  106  A    between atoms: _266  and  _269
REMARK  107  A    between atoms: _269  and  _270
REMARK  108  A    between atoms: _273  and  _275
REMARK  109  A    between atoms: _275  and  _276
REMARK  110  A    between atoms: _275  and  _278
REMARK  111  A    between atoms: _278  and  _279
REMARK  112  A    between atoms: _281  and  _283
REMARK  113  A    between atoms: _283  and  _284
REMARK  114  A    between atoms: _283  and  _286
REMARK  115  A    between atoms: _286  and  _287
REMARK  116  A    between atoms: _287  and  _390
REMARK  117  A    between atoms: _288  and  _290
REMARK  118  A    between atoms: _290  and  _291
REMARK  119  A    between atoms: _290  and  _293
REMARK  120  A    between atoms: _293  and  _294
REMARK  121  A    between atoms: _294  and  _295
REMARK  122  A    between atoms: _300  and  _302
REMARK  123  A    between atoms: _302  and  _303
REMARK  124  A    between atoms: _305  and  _307
REMARK  125  A    between atoms: _307  and  _308
REMARK  126  A    between atoms: _307  and  _310
REMARK  127  A    between atoms: _310  and  _311
REMARK  128  A    between atoms: _314  and  _316
REMARK  129  A    between atoms: _316  and  _317
REMARK  130  A    between atoms: _316  and  _319
REMARK  131  A    between atoms: _319  and  _320
REMARK  132  A    between atoms: _322  and  _324
REMARK  133  A    between atoms: _324  and  _325
REMARK  134  A    between atoms: _327  and  _329
REMARK  135  A    between atoms: _329  and  _330
REMARK  136  A    between atoms: _332  and  _334
REMARK  137  A    between atoms: _334  and  _335
REMARK  138  A    between atoms: _334  and  _337
REMARK  139  A    between atoms: _340  and  _342
REMARK  140  A    between atoms: _342  and  _343
REMARK  141  A    between atoms: _342  and  _345
REMARK  142  A    between atoms: _345  and  _346
REMARK  143  A    between atoms: _348  and  _350
REMARK  144  A    between atoms: _350  and  _351
REMARK  145  A    between atoms: _350  and  _353
REMARK  146  A    between atoms: _353  and  _354
REMARK  147  A    between atoms: _364  and  _366
REMARK  148  A    between atoms: _366  and  _367
REMARK  149  A    between atoms: _369  and  _371
REMARK  150  A    between atoms: _371  and  _372
REMARK  151  A    between atoms: _371  and  _374
REMARK  152  A    between atoms: _374  and  _375
REMARK  153  A    between atoms: _375  and  _376
REMARK  154  A    between atoms: _379  and  _381
REMARK  155  A    between atoms: _381  and  _382
REMARK  156  A    between atoms: _384  and  _386
REMARK  157  A    between atoms: _386  and  _387
REMARK  158  A    between atoms: _386  and  _389
REMARK  159  A    between atoms: _389  and  _390
REMARK  160  A    between atoms: _391  and  _393
REMARK  161  A    between atoms: _393  and  _394
REMARK  162  A    between atoms: _397  and  _399
REMARK  163  A    between atoms: _399  and  _400
REMARK  164  A    between atoms: _399  and  _402
REMARK  165  A    between atoms: _402  and  _403
REMARK  166  A    between atoms: _403  and  _404
REMARK  167  A    between atoms: _409  and  _411
REMARK  168  A    between atoms: _411  and  _412
REMARK  169  A    between atoms: _411  and  _414
REMARK  170  A    between atoms: _414  and  _415
REMARK  171  A    between atoms: _420  and  _422
REMARK  172  A    between atoms: _422  and  _423
REMARK  173  A    between atoms: _422  and  _425
REMARK  174  A    between atoms: _425  and  _426
REMARK  175  A    between atoms: _426  and  _427
REMARK  176  A    between atoms: _427  and  _428
REMARK  177  A    between atoms: _438  and  _439
REMARK  178  A    between atoms: _444  and  _446
REMARK  179  A    between atoms: _446  and  _447
REMARK  180  A    between atoms: _449  and  _451
REMARK  181  A    between atoms: _451  and  _452
REMARK  182  A    between atoms: _451  and  _454
REMARK  183  A    between atoms: _454  and  _455
REMARK  184  A    between atoms: _458  and  _460
REMARK  185  A    between atoms: _460  and  _461
REMARK  186  A    between atoms: _460  and  _463
REMARK  187  A    between atoms: _463  and  _464
REMARK  188  A    between atoms: _469  and  _470
REMARK  189  A    between atoms: _472  and  _474
REMARK  190  A    between atoms: _474  and  _475
REMARK  191  A    between atoms: _478  and  _479
REMARK  192  A    between atoms: _484  and  _486
REMARK  193  A    between atoms: _486  and  _487
REMARK  194  A    between atoms: _486  and  _489
REMARK  195  A    between atoms: _489  and  _490
REMARK  196  A    between atoms: _493  and  _495
REMARK  197  A    between atoms: _495  and  _496
REMARK  198  A    between atoms: _495  and  _498
REMARK  199  A    between atoms: _501  and  _503
REMARK  200  A    between atoms: _503  and  _504
REMARK  201  A    between atoms: _503  and  _506
REMARK  202  A    between atoms: _506  and  _507
REMARK  203  A    between atoms: _513  and  _515
REMARK  204  A    between atoms: _515  and  _516
REMARK  205  A    between atoms: _515  and  _518
REMARK  206  A    between atoms: _518  and  _519
REMARK  207  A    between atoms: _524  and  _525
REMARK  208  A    between atoms: _527  and  _529
REMARK  209  A    between atoms: _529  and  _530
REMARK  210  A    between atoms: _529  and  _532
REMARK  211  A    between atoms: _532  and  _533
REMARK  212  A    between atoms: _536  and  _538
REMARK  213  A    between atoms: _538  and  _539
REMARK  214  A    between atoms: _542  and  _544
REMARK  215  A    between atoms: _544  and  _545
REMARK  216  A    between atoms: _544  and  _547
REMARK  217  A    between atoms: _547  and  _548
REMARK  218  A    between atoms: _548  and  _549
REMARK  219  A    between atoms: _554  and  _556
REMARK  220  A    between atoms: _556  and  _557
REMARK  221  A    between atoms: _556  and  _559
REMARK  222  A    between atoms: _559  and  _560
REMARK                            x       y       z     vdW  Elec       q    Type
REMARK                         _______ _______ _______ _____ _____    ______ ____
ROOT
ATOM      1  CB  HIS A   1      22.740  74.115  93.079  0.00  0.00    +0.072 C 
ENDROOT
BRANCH   1   2
ATOM      2  CG  HIS A   1      22.076  74.980  92.053  0.00  0.00    +0.082 A 
ATOM      3  CD2 HIS A   1      22.214  76.300  91.775  0.00  0.00    +0.115 A 
ATOM      4  NE2 HIS A   1      21.379  76.583  90.721  0.00  0.00    -0.221 NA
ATOM      5  CE1 HIS A   1      20.753  75.476  90.360  0.00  0.00    +0.199 A 
ATOM      6  ND1 HIS A   1      21.162  74.491  91.140  0.00  0.00    -0.227 NA
ENDBRANCH   1   2
BRANCH   1   7
ATOM      7  CA  HIS A   1      22.087  74.163  94.465  0.00  0.00    +0.139 C 
BRANCH   7   8
ATOM      8  N   HIS A   1      20.873  73.328  94.560  0.00  0.00    -0.239 NA
ATOM      9  H   HIS A   1      20.377  73.029  93.696  0.00  0.00    +0.142 HD
ENDBRANCH   7   8
BRANCH   7  10
ATOM     10  C   HIS A   1      21.816  75.598  94.881  0.00  0.00    +0.224 C 
ATOM     11  O   HIS A   1      22.743  76.383  95.062  0.00  0.00    -0.287 OA
ENDBRANCH   7  10
ENDBRANCH   1   7
TORSDOF 4
REMARK  Name = ../refined-set-2016/2za5/2za5_pocket.pdb
REMARK  222 active torsions:
REMARK  status: ('A' for Active; 'I' for Inactive)
REMARK    1  A    between atoms: _1  and  _5
REMARK    2  A    between atoms: _5  and  _6
REMARK    3  A    between atoms: _5  and  _8
REMARK    4  A    between atoms: _8  and  _9
REMARK    5  A    between atoms: _12  and  _14
REMARK    6  A    between atoms: _14  and  _15
REMARK    7  A    between atoms: _14  and  _17
REMARK    8  A    between atoms: _20  and  _22
REMARK    9  A    between atoms: _22  and  _23
REMARK   10  A    between atoms: _22  and  _25
REMARK   11  A    between atoms: _27  and  _29
REMARK   12  A    between atoms: _29  and  _30
REMARK   13  A    between atoms: _29  and  _32
REMARK   14  A    between atoms: _32  and  _33
REMARK   15  A    between atoms: _38  and  _40
REMARK   16  A    between atoms: _40  and  _41
REMARK   17  A    between atoms: _44  and  _46
REMARK   18  A    between atoms: _46  and  _47
REMARK   19  A    between atoms: _46  and  _49
REMARK   20  A    between atoms: _49  and  _50
REMARK   21  A    between atoms: _50  and  _51
REMARK   22  A    between atoms: _56  and  _58
REMARK   23  A    between atoms: _58  and  _59
REMARK   24  A    between atoms: _58  and  _61
REMARK   25  A    between atoms: _64  and  _66
REMARK   26  A    between atoms: _66  and  _67
REMARK   27  A    between atoms: _66  and  _69
REMARK   28  A    between atoms: _69  and  _70
REMARK   29  A    between atoms: _73  and  _75
REMARK   30  A    between atoms: _75  and  _76
REMARK   31  A    between atoms: _75  and  _78
REMARK   32  A    between atoms: _78  and  _79
REMARK   33  A    between atoms: _84  and  _86
REMARK   34  A    between atoms: _86  and  _87
REMARK   35  A    between atoms: _86  and  _89
REMARK   36  A    between atoms: _89  and  _90
REMARK   37  A    between atoms: _93  and  _95
REMARK   38  A    between atoms: _95  and  _96
REMARK   39  A    between atoms: _95  and  _98
REMARK   40  A    between atoms: _98  and  _99
REMARK   41  A    between atoms: _102  and  _104
REMARK   42  A    between atoms: _104  and  _105
REMARK   43  A    between atoms: _104  and  _107
REMARK   44  A    between atoms: _107  and  _108
REMARK   45  A    between atoms: _108  and  _109
REMARK   46  A    between atoms: _109  and  _110
REMARK   47  A    between atoms: _110  and  _111
REMARK   48  A    between atoms: _115  and  _117
REMARK   49  A    between atoms: _117  and  _118
REMARK   50  A    between atoms: _117  and  _120
REMARK   51  A    between atoms: _120  and  _121
REMARK   52  A    between atoms: _126  and  _127
REMARK   53  A    between atoms: _129  and  _131
REMARK   54  A    between atoms: _131  and  _132
REMARK   55  A    between atoms: _131  and  _134
REMARK   56  A    between atoms: _134  and  _135
REMARK   57  A    between atoms: _140  and  _142
REMARK   58  A    between atoms: _142  and  _143
REMARK   59  A    between atoms: _142  and  _145
REMARK   60  A    between atoms: _145  and  _146
REMARK   61  A    between atoms: _149  and  _151
REMARK   62  A    between atoms: _151  and  _152
REMARK   63  A    between atoms: _154  and  _156
REMARK   64  A    between atoms: _156  and  _157
REMARK   65  A    between atoms: _160  and  _162
REMARK   66  A    between atoms: _162  and  _163
REMARK   67  A    between atoms: _162  and  _165
REMARK   68  A    between atoms: _165  and  _166
REMARK   69  A    between atoms: _171  and  _172
REMARK   70  A    between atoms: _174  and  _176
REMARK   71  A    between atoms: _176  and  _177
REMARK   72  A    between atoms: _176  and  _179
REMARK   73  A    between atoms: _179  and  _180
REMARK   74  A    between atoms: _183  and  _185
REMARK   75  A    between atoms: _185  and  _186
REMARK   76  A    between atoms: _185  and  _188
REMARK   77  A    between atoms: _191  and  _193
REMARK   78  A    between atoms: _193  and  _194
REMARK   79  A    between atoms: _193  and  _196
REMARK   80  A    between atoms: _196  and  _197
REMARK   81  A    between atoms: _197  and  _198
REMARK   82  A    between atoms: _198  and  _199
REMARK   83  A    between atoms: _208  and  _210
REMARK   84  A    between atoms: _210  and  _211
REMARK   85  A    between atoms: _210  and  _213
REMARK   86  A    between atoms: _213  and  _214
REMARK   87  A    between atoms: _217  and  _219
REMARK   88  A    between atoms: _219  and  _220
REMARK   89  A    between atoms: _219  and  _222
REMARK   90  A    between atoms: _225  and  _227
REMARK   91  A    between atoms: _227  and  _228
REMARK   92  A    between atoms: _231  and  _233
REMARK   93  A    between atoms: _233  and  _234
REMARK   94  A    between atoms: _236  and  _238
REMARK   95  A    between atoms: _238  and  _239
REMARK   96  A    between atoms: _238  and  _241
REMARK   97  A    between atoms: _241  and  _242
REMARK   98  A    between atoms: _247  and  _249
REMARK   99  A    between atoms: _249  and  _250
REMARK  100  A    between atoms: _249  and  _252
REMARK  101  A    between atoms: _252  and  _253
REMARK  102  A    between atoms: _253  and  _254
REMARK  103  A    between atoms: _254  and  _255
REMARK  104  A    between atoms: _264  and  _266
REMARK  105  A    between atoms: _266  and  _267
REMARK  106  A    between atoms: _266  and  _269
REMARK  107  A    between atoms: _269  and  _270
REMARK  108  A    between atoms: _273  and  _275
REMARK  109  A    between atoms: _275  and  _276
REMARK  110  A    between atoms: _275  and  _278
REMARK  111  A    between atoms: _278  and  _279
REMARK  112  A    between atoms: _281  and  _283
REMARK  113  A    between atoms: _283  and  _284
REMARK  114  A    between atoms: _283  and  _286
REMARK  115  A    between atoms: _286  and  _287
REMARK  116  A    between atoms: _287  and  _390
REMARK  117  A    between atoms: _288  and  _290
REMARK  118  A    between atoms: _290  and  _291
REMARK  119  A    between atoms: _290  and  _293
REMARK  120  A    between atoms: _293  and  _294
REMARK  121  A    between atoms: _294  and  _295
REMARK  122  A    between atoms: _300  and  _302
REMARK  123  A    between atoms: _302  and  _303
REMARK  124  A    between atoms: _305  and  _307
REMARK  125  A    between atoms: _307  and  _308
REMARK  126  A    between atoms: _307  and  _310
REMARK  127  A    between atoms: _310  and  _311
REMARK  128  A    between atoms: _314  and  _316
REMARK  129  A    between atoms: _316  and  _317
REMARK  130  A    between atoms: _316  and  _319
REMARK  131  A    between atoms: _319  and  _320
REMARK  132  A    between atoms: _322  and  _324
REMARK  133  A    between atoms: _324  and  _325
REMARK  134  A    between atoms: _327  and  _329
REMARK  135  A    between atoms: _329  and  _330
REMARK  136  A    between atoms: _332  and  _334
REMARK  137  A    between atoms: _334  and  _335
REMARK  138  A    between atoms: _334  and  _337
REMARK  139  A    between atoms: _340  and  _342
REMARK  140  A    between atoms: _342  and  _343
REMARK  141  A    between atoms: _342  and  _345
REMARK  142  A    between atoms: _345  and  _346
REMARK  143  A    between atoms: _348  and  _350
REMARK  144  A    between atoms: _350  and  _351
REMARK  145  A    between atoms: _350  and  _353
REMARK  146  A    between atoms: _353  and  _354
REMARK  147  A    between atoms: _364  and  _366
REMARK  148  A    between atoms: _366  and  _367
REMARK  149  A    between atoms: _369  and  _371
REMARK  150  A    between atoms: _371  and  _372
REMARK  151  A    between atoms: _371  and  _374
REMARK  152  A    between atoms: _374  and  _375
REMARK  153  A    between atoms: _375  and  _376
REMARK  154  A    between atoms: _379  and  _381
REMARK  155  A    between atoms: _381  and  _382
REMARK  156  A    between atoms: _384  and  _386
REMARK  157  A    between atoms: _386  and  _387
REMARK  158  A    between atoms: _386  and  _389
REMARK  159  A    between atoms: _389  and  _390
REMARK  160  A    between atoms: _391  and  _393
REMARK  161  A    between atoms: _393  and  _394
REMARK  162  A    between atoms: _397  and  _399
REMARK  163  A    between atoms: _399  and  _400
REMARK  164  A    between atoms: _399  and  _402
REMARK  165  A    between atoms: _402  and  _403
REMARK  166  A    between atoms: _403  and  _404
REMARK  167  A    between atoms: _409  and  _411
REMARK  168  A    between atoms: _411  and  _412
REMARK  169  A    between atoms: _411  and  _414
REMARK  170  A    between atoms: _414  and  _415
REMARK  171  A    between atoms: _420  and  _422
REMARK  172  A    between atoms: _422  and  _423
REMARK  173  A    between atoms: _422  and  _425
REMARK  174  A    between atoms: _425  and  _426
REMARK  175  A    between atoms: _426  and  _427
REMARK  176  A    between atoms: _427  and  _428
REMARK  177  A    between atoms: _438  and  _439
REMARK  178  A    between atoms: _444  and  _446
REMARK  179  A    between atoms: _446  and  _447
REMARK  180  A    between atoms: _449  and  _451
REMARK  181  A    between atoms: _451  and  _452
REMARK  182  A    between atoms: _451  and  _454
REMARK  183  A    between atoms: _454  and  _455
REMARK  184  A    between atoms: _458  and  _460
REMARK  185  A    between atoms: _460  and  _461
REMARK  186  A    between atoms: _460  and  _463
REMARK  187  A    between atoms: _463  and  _464
REMARK  188  A    between atoms: _469  and  _470
REMARK  189  A    between atoms: _472  and  _474
REMARK  190  A    between atoms: _474  and  _475
REMARK  191  A    between atoms: _478  and  _479
REMARK  192  A    between atoms: _484  and  _486
REMARK  193  A    between atoms: _486  and  _487
REMARK  194  A    between atoms: _486  and  _489
REMARK  195  A    between atoms: _489  and  _490
REMARK  196  A    between atoms: _493  and  _495
REMARK  197  A    between atoms: _495  and  _496
REMARK  198  A    between atoms: _495  and  _498
REMARK  199  A    between atoms: _501  and  _503
REMARK  200  A    between atoms: _503  and  _504
REMARK  201  A    between atoms: _503  and  _506
REMARK  202  A    between atoms: _506  and  _507
REMARK  203  A    between atoms: _513  and  _515
REMARK  204  A    between atoms: _515  and  _516
REMARK  205  A    between atoms: _515  and  _518
REMARK  206  A    between atoms: _518  and  _519
REMARK  207  A    between atoms: _524  and  _525
REMARK  208  A    between atoms: _527  and  _529
REMARK  209  A    between atoms: _529  and  _530
REMARK  210  A    between atoms: _529  and  _532
REMARK  211  A    between atoms: _532  and  _533
REMARK  212  A    between atoms: _536  and  _538
REMARK  213  A    between atoms: _538  and  _539
REMARK  214  A    between atoms: _542  and  _544
REMARK  215  A    between atoms: _544  and  _545
REMARK  216  A    between atoms: _544  and  _547
REMARK  217  A    between atoms: _547  and  _548
REMARK  218  A    between atoms: _548  and  _549
REMARK  219  A    between atoms: _554  and  _556
REMARK  220  A    between atoms: _556  and  _557
REMARK  221  A    between atoms: _556  and  _559
REMARK  222  A    between atoms: _559  and  _560
REMARK                            x       y       z     vdW  Elec       q    Type
REMARK                         _______ _______ _______ _____ _____    ______ ____
ROOT
ATOM      1  CA  GLN A   2      26.090  68.123  87.159  0.00  0.00    +0.137 C 
ENDROOT
BRANCH   1   3
ATOM      2  C   ALA A   1      24.441  69.142  88.600  0.00  0.00    +0.238 C 
ATOM      3  N   GLN A   2      25.722  69.022  88.250  0.00  0.00    -0.298 N 
ATOM      4  H   GLN A   2      26.454  69.565  88.750  0.00  0.00    +0.150 HD
ATOM      5  O   ALA A   1      23.546  68.510  88.049  0.00  0.00    -0.274 OA
BRANCH   2   6
ATOM      6  CA  ALA A   1      24.108  70.107  89.730  0.00  0.00    +0.145 C 
ATOM      7  CB  ALA A   1      23.718  71.489  89.171  0.00  0.00    +0.028 C 
BRANCH   6   8
ATOM      8  N   ALA A   1      25.220  70.221  90.659  0.00  0.00    -0.238 NA
ATOM      9  H   ALA A   1      25.721  71.128  90.747  0.00  0.00    +0.142 HD
ENDBRANCH   6   8
ENDBRANCH   2   6
ENDBRANCH   1   3
BRANCH   1  10
ATOM     10  C   GLN A   2      25.972  66.677  87.606  0.00  0.00    +0.227 C 
ATOM     11  O   GLN A   2      25.694  65.799  86.811  0.00  0.00    -0.286 OA
ENDBRANCH   1  10
BRANCH   1  12
ATOM     12  CB  GLN A   2      27.492  68.398  86.622  0.00  0.00    +0.037 C 
BRANCH  12  13
ATOM     13  CG  GLN A   2      27.621  69.736  85.950  0.00  0.00    +0.087 C 
BRANCH  13  14
ATOM     14  CD  GLN A   2      27.579  70.865  86.941  0.00  0.00    +0.219 C 
ATOM     15  OE1 GLN A   2      28.156  70.765  88.033  0.00  0.00    -0.275 OA
ATOM     16  NE2 GLN A   2      26.880  71.947  86.584  0.00  0.00    -0.329 N 
ATOM     17 HE21 GLN A   2      26.802  72.754  87.235  0.00  0.00    +0.145 HD
ATOM     18 HE22 GLN A   2      26.414  71.982  85.655  0.00  0.00    +0.145 HD
ENDBRANCH  13  14
ENDBRANCH  12  13
ENDBRANCH   1  12
TORSDOF 7
REMARK  Name = ../refined-set-2016/2za5/2za5_pocket.pdb
REMARK  222 active torsions:
REMARK  status: ('A' for Active; 'I' for Inactive)
REMARK    1  A    between atoms: _1  and  _5
REMARK    2  A    between atoms: _5  and  _6
REMARK    3  A    between atoms: _5  and  _8
REMARK    4  A    between atoms: _8  and  _9
REMARK    5  A    between atoms: _12  and  _14
REMARK    6  A    between atoms: _14  and  _15
REMARK    7  A    between atoms: _14  and  _17
REMARK    8  A    between atoms: _20  and  _22
REMARK    9  A    between atoms: _22  and  _23
REMARK   10  A    between atoms: _22  and  _25
REMARK   11  A    between atoms: _27  and  _29
REMARK   12  A    between atoms: _29  and  _30
REMARK   13  A    between atoms: _29  and  _32
REMARK   14  A    between atoms: _32  and  _33
REMARK   15  A    between atoms: _38  and  _40
REMARK   16  A    between atoms: _40  and  _41
REMARK   17  A    between atoms: _44  and  _46
REMARK   18  A    between atoms: _46  and  _47
REMARK   19  A    between atoms: _46  and  _49
REMARK   20  A    between atoms: _49  and  _50
REMARK   21  A    between atoms: _50  and  _51
REMARK   22  A    between atoms: _56  and  _58
REMARK   23  A    between atoms: _58  and  _59
REMARK   24  A    between atoms: _58  and  _61
REMARK   25  A    between atoms: _64  and  _66
REMARK   26  A    between atoms: _66  and  _67
REMARK   27  A    between atoms: _66  and  _69
REMARK   28  A    between atoms: _69  and  _70
REMARK   29  A    between atoms: _73  and  _75
REMARK   30  A    between atoms: _75  and  _76
REMARK   31  A    between atoms: _75  and  _78
REMARK   32  A    between atoms: _78  and  _79
REMARK   33  A    between atoms: _84  and  _86
REMARK   34  A    between atoms: _86  and  _87
REMARK   35  A    between atoms: _86  and  _89
REMARK   36  A    between atoms: _89  and  _90
REMARK   37  A    between atoms: _93  and  _95
REMARK   38  A    between atoms: _95  and  _96
REMARK   39  A    between atoms: _95  and  _98
REMARK   40  A    between atoms: _98  and  _99
REMARK   41  A    between atoms: _102  and  _104
REMARK   42  A    between atoms: _104  and  _105
REMARK   43  A    between atoms: _104  and  _107
REMARK   44  A    between atoms: _107  and  _108
REMARK   45  A    between atoms: _108  and  _109
REMARK   46  A    between atoms: _109  and  _110
REMARK   47  A    between atoms: _110  and  _111
REMARK   48  A    between atoms: _115  and  _117
REMARK   49  A    between atoms: _117  and  _118
REMARK   50  A    between atoms: _117  and  _120
REMARK   51  A    between atoms: _120  and  _121
REMARK   52  A    between atoms: _126  and  _127
REMARK   53  A    between atoms: _129  and  _131
REMARK   54  A    between atoms: _131  and  _132
REMARK   55  A    between atoms: _131  and  _134
REMARK   56  A    between atoms: _134  and  _135
REMARK   57  A    between atoms: _140  and  _142
REMARK   58  A    between atoms: _142  and  _143
REMARK   59  A    between atoms: _142  and  _145
REMARK   60  A    between atoms: _145  and  _146
REMARK   61  A    between atoms: _149  and  _151
REMARK   62  A    between atoms: _151  and  _152
REMARK   63  A    between atoms: _154  and  _156
REMARK   64  A    between atoms: _156  and  _157
REMARK   65  A    between atoms: _160  and  _162
REMARK   66  A    between atoms: _162  and  _163
REMARK   67  A    between atoms: _162  and  _165
REMARK   68  A    between atoms: _165  and  _166
REMARK   69  A    between atoms: _171  and  _172
REMARK   70  A    between atoms: _174  and  _176
REMARK   71  A    between atoms: _176  and  _177
REMARK   72  A    between atoms: _176  and  _179
REMARK   73  A    between atoms: _179  and  _180
REMARK   74  A    between atoms: _183  and  _185
REMARK   75  A    between atoms: _185  and  _186
REMARK   76  A    between atoms: _185  and  _188
REMARK   77  A    between atoms: _191  and  _193
REMARK   78  A    between atoms: _193  and  _194
REMARK   79  A    between atoms: _193  and  _196
REMARK   80  A    between atoms: _196  and  _197
REMARK   81  A    between atoms: _197  and  _198
REMARK   82  A    between atoms: _198  and  _199
REMARK   83  A    between atoms: _208  and  _210
REMARK   84  A    between atoms: _210  and  _211
REMARK   85  A    between atoms: _210  and  _213
REMARK   86  A    between atoms: _213  and  _214
REMARK   87  A    between atoms: _217  and  _219
REMARK   88  A    between atoms: _219  and  _220
REMARK   89  A    between atoms: _219  and  _222
REMARK   90  A    between atoms: _225  and  _227
REMARK   91  A    between atoms: _227  and  _228
REMARK   92  A    between atoms: _231  and  _233
REMARK   93  A    between atoms: _233  and  _234
REMARK   94  A    between atoms: _236  and  _238
REMARK   95  A    between atoms: _238  and  _239
REMARK   96  A    between atoms: _238  and  _241
REMARK   97  A    between atoms: _241  and  _242
REMARK   98  A    between atoms: _247  and  _249
REMARK   99  A    between atoms: _249  and  _250
REMARK  100  A    between atoms: _249  and  _252
REMARK  101  A    between atoms: _252  and  _253
REMARK  102  A    between atoms: _253  and  _254
REMARK  103  A    between atoms: _254  and  _255
REMARK  104  A    between atoms: _264  and  _266
REMARK  105  A    between atoms: _266  and  _267
REMARK  106  A    between atoms: _266  and  _269
REMARK  107  A    between atoms: _269  and  _270
REMARK  108  A    between atoms: _273  and  _275
REMARK  109  A    between atoms: _275  and  _276
REMARK  110  A    between atoms: _275  and  _278
REMARK  111  A    between atoms: _278  and  _279
REMARK  112  A    between atoms: _281  and  _283
REMARK  113  A    between atoms: _283  and  _284
REMARK  114  A    between atoms: _283  and  _286
REMARK  115  A    between atoms: _286  and  _287
REMARK  116  A    between atoms: _287  and  _390
REMARK  117  A    between atoms: _288  and  _290
REMARK  118  A    between atoms: _290  and  _291
REMARK  119  A    between atoms: _290  and  _293
REMARK  120  A    between atoms: _293  and  _294
REMARK  121  A    between atoms: _294  and  _295
REMARK  122  A    between atoms: _300  and  _302
REMARK  123  A    between atoms: _302  and  _303
REMARK  124  A    between atoms: _305  and  _307
REMARK  125  A    between atoms: _307  and  _308
REMARK  126  A    between atoms: _307  and  _310
REMARK  127  A    between atoms: _310  and  _311
REMARK  128  A    between atoms: _314  and  _316
REMARK  129  A    between atoms: _316  and  _317
REMARK  130  A    between atoms: _316  and  _319
REMARK  131  A    between atoms: _319  and  _320
REMARK  132  A    between atoms: _322  and  _324
REMARK  133  A    between atoms: _324  and  _325
REMARK  134  A    between atoms: _327  and  _329
REMARK  135  A    between atoms: _329  and  _330
REMARK  136  A    between atoms: _332  and  _334
REMARK  137  A    between atoms: _334  and  _335
REMARK  138  A    between atoms: _334  and  _337
REMARK  139  A    between atoms: _340  and  _342
REMARK  140  A    between atoms: _342  and  _343
REMARK  141  A    between atoms: _342  and  _345
REMARK  142  A    between atoms: _345  and  _346
REMARK  143  A    between atoms: _348  and  _350
REMARK  144  A    between atoms: _350  and  _351
REMARK  145  A    between atoms: _350  and  _353
REMARK  146  A    between atoms: _353  and  _354
REMARK  147  A    between atoms: _364  and  _366
REMARK  148  A    between atoms: _366  and  _367
REMARK  149  A    between atoms: _369  and  _371
REMARK  150  A    between atoms: _371  and  _372
REMARK  151  A    between atoms: _371  and  _374
REMARK  152  A    between atoms: _374  and  _375
REMARK  153  A    between atoms: _375  and  _376
REMARK  154  A    between atoms: _379  and  _381
REMARK  155  A    between atoms: _381  and  _382
REMARK  156  A    between atoms: _384  and  _386
REMARK  157  A    between atoms: _386  and  _387
REMARK  158  A    between atoms: _386  and  _389
REMARK  159  A    between atoms: _389  and  _390
REMARK  160  A    between atoms: _391  and  _393
REMARK  161  A    between atoms: _393  and  _394
REMARK  162  A    between atoms: _397  and  _399
REMARK  163  A    between atoms: _399  and  _400
REMARK  164  A    between atoms: _399  and  _402
REMARK  165  A    between atoms: _402  and  _403
REMARK  166  A    between atoms: _403  and  _404
REMARK  167  A    between atoms: _409  and  _411
REMARK  168  A    between atoms: _411  and  _412
REMARK  169  A    between atoms: _411  and  _414
REMARK  170  A    between atoms: _414  and  _415
REMARK  171  A    between atoms: _420  and  _422
REMARK  172  A    between atoms: _422  and  _423
REMARK  173  A    between atoms: _422  and  _425
REMARK  174  A    between atoms: _425  and  _426
REMARK  175  A    between atoms: _426  and  _427
REMARK  176  A    between atoms: _427  and  _428
REMARK  177  A    between atoms: _438  and  _439
REMARK  178  A    between atoms: _444  and  _446
REMARK  179  A    between atoms: _446  and  _447
REMARK  180  A    between atoms: _449  and  _451
REMARK  181  A    between atoms: _451  and  _452
REMARK  182  A    between atoms: _451  and  _454
REMARK  183  A    between atoms: _454  and  _455
REMARK  184  A    between atoms: _458  and  _460
REMARK  185  A    between atoms: _460  and  _461
REMARK  186  A    between atoms: _460  and  _463
REMARK  187  A    between atoms: _463  and  _464
REMARK  188  A    between atoms: _469  and  _470
REMARK  189  A    between atoms: _472  and  _474
REMARK  190  A    between atoms: _474  and  _475
REMARK  191  A    between atoms: _478  and  _479
REMARK  192  A    between atoms: _484  and  _486
REMARK  193  A    between atoms: _486  and  _487
REMARK  194  A    between atoms: _486  and  _489
REMARK  195  A    between atoms: _489  and  _490
REMARK  196  A    between atoms: _493  and  _495
REMARK  197  A    between atoms: _495  and  _496
REMARK  198  A    between atoms: _495  and  _498
REMARK  199  A    between atoms: _501  and  _503
REMARK  200  A    between atoms: _503  and  _504
REMARK  201  A    between atoms: _503  and  _506
REMARK  202  A    between atoms: _506  and  _507
REMARK  203  A    between atoms: _513  and  _515
REMARK  204  A    between atoms: _515  and  _516
REMARK  205  A    between atoms: _515  and  _518
REMARK  206  A    between atoms: _518  and  _519
REMARK  207  A    between atoms: _524  and  _525
REMARK  208  A    between atoms: _527  and  _529
REMARK  209  A    between atoms: _529  and  _530
REMARK  210  A    between atoms: _529  and  _532
REMARK  211  A    between atoms: _532  and  _533
REMARK  212  A    between atoms: _536  and  _538
REMARK  213  A    between atoms: _538  and  _539
REMARK  214  A    between atoms: _542  and  _544
REMARK  215  A    between atoms: _544  and  _545
REMARK  216  A    between atoms: _544  and  _547
REMARK  217  A    between atoms: _547  and  _548
REMARK  218  A    between atoms: _548  and  _549
REMARK  219  A    between atoms: _554  and  _556
REMARK  220  A    between atoms: _556  and  _557
REMARK  221  A    between atoms: _556  and  _559
REMARK  222  A    between atoms: _559  and  _560
REMARK                            x       y       z     vdW  Elec       q    Type
REMARK                         _______ _______ _______ _____ _____    ______ ____
ROOT
ATOM      1  CA  VAL A   1       9.782  78.350  81.942  0.00  0.00    +0.133 C 
ENDROOT
BRANCH   1   2
ATOM      2  CB  VAL A   1      11.277  77.879  81.800  0.00  0.00    +0.023 C 
ATOM      3  CG2 VAL A   1      12.014  78.016  83.121  0.00  0.00    +0.002 C 
ATOM      4  CG1 VAL A   1      12.000  78.635  80.681  0.00  0.00    +0.002 C 
ENDBRANCH   1   2
BRANCH   1   5
ATOM      5  N   VAL A   1       9.004  78.082  80.744  0.00  0.00    -0.239 NA
ATOM      6  H   VAL A   1       9.282  78.526  79.845  0.00  0.00    +0.142 HD
ENDBRANCH   1   5
BRANCH   1   7
ATOM      7  C   VAL A   1       9.627  79.840  82.309  0.00  0.00    +0.224 C 
ATOM      8  O   VAL A   1       9.426  80.700  81.443  0.00  0.00    -0.287 OA
ENDBRANCH   1   7
TORSDOF 3
REMARK  Name = ../refined-set-2016/2za5/2za5_pocket.pdb
REMARK  222 active torsions:
REMARK  status: ('A' for Active; 'I' for Inactive)
REMARK    1  A    between atoms: _1  and  _5
REMARK    2  A    between atoms: _5  and  _6
REMARK    3  A    between atoms: _5  and  _8
REMARK    4  A    between atoms: _8  and  _9
REMARK    5  A    between atoms: _12  and  _14
REMARK    6  A    between atoms: _14  and  _15
REMARK    7  A    between atoms: _14  and  _17
REMARK    8  A    between atoms: _20  and  _22
REMARK    9  A    between atoms: _22  and  _23
REMARK   10  A    between atoms: _22  and  _25
REMARK   11  A    between atoms: _27  and  _29
REMARK   12  A    between atoms: _29  and  _30
REMARK   13  A    between atoms: _29  and  _32
REMARK   14  A    between atoms: _32  and  _33
REMARK   15  A    between atoms: _38  and  _40
REMARK   16  A    between atoms: _40  and  _41
REMARK   17  A    between atoms: _44  and  _46
REMARK   18  A    between atoms: _46  and  _47
REMARK   19  A    between atoms: _46  and  _49
REMARK   20  A    between atoms: _49  and  _50
REMARK   21  A    between atoms: _50  and  _51
REMARK   22  A    between atoms: _56  and  _58
REMARK   23  A    between atoms: _58  and  _59
REMARK   24  A    between atoms: _58  and  _61
REMARK   25  A    between atoms: _64  and  _66
REMARK   26  A    between atoms: _66  and  _67
REMARK   27  A    between atoms: _66  and  _69
REMARK   28  A    between atoms: _69  and  _70
REMARK   29  A    between atoms: _73  and  _75
REMARK   30  A    between atoms: _75  and  _76
REMARK   31  A    between atoms: _75  and  _78
REMARK   32  A    between atoms: _78  and  _79
REMARK   33  A    between atoms: _84  and  _86
REMARK   34  A    between atoms: _86  and  _87
REMARK   35  A    between atoms: _86  and  _89
REMARK   36  A    between atoms: _89  and  _90
REMARK   37  A    between atoms: _93  and  _95
REMARK   38  A    between atoms: _95  and  _96
REMARK   39  A    between atoms: _95  and  _98
REMARK   40  A    between atoms: _98  and  _99
REMARK   41  A    between atoms: _102  and  _104
REMARK   42  A    between atoms: _104  and  _105
REMARK   43  A    between atoms: _104  and  _107
REMARK   44  A    between atoms: _107  and  _108
REMARK   45  A    between atoms: _108  and  _109
REMARK   46  A    between atoms: _109  and  _110
REMARK   47  A    between atoms: _110  and  _111
REMARK   48  A    between atoms: _115  and  _117
REMARK   49  A    between atoms: _117  and  _118
REMARK   50  A    between atoms: _117  and  _120
REMARK   51  A    between atoms: _120  and  _121
REMARK   52  A    between atoms: _126  and  _127
REMARK   53  A    between atoms: _129  and  _131
REMARK   54  A    between atoms: _131  and  _132
REMARK   55  A    between atoms: _131  and  _134
REMARK   56  A    between atoms: _134  and  _135
REMARK   57  A    between atoms: _140  and  _142
REMARK   58  A    between atoms: _142  and  _143
REMARK   59  A    between atoms: _142  and  _145
REMARK   60  A    between atoms: _145  and  _146
REMARK   61  A    between atoms: _149  and  _151
REMARK   62  A    between atoms: _151  and  _152
REMARK   63  A    between atoms: _154  and  _156
REMARK   64  A    between atoms: _156  and  _157
REMARK   65  A    between atoms: _160  and  _162
REMARK   66  A    between atoms: _162  and  _163
REMARK   67  A    between atoms: _162  and  _165
REMARK   68  A    between atoms: _165  and  _166
REMARK   69  A    between atoms: _171  and  _172
REMARK   70  A    between atoms: _174  and  _176
REMARK   71  A    between atoms: _176  and  _177
REMARK   72  A    between atoms: _176  and  _179
REMARK   73  A    between atoms: _179  and  _180
REMARK   74  A    between atoms: _183  and  _185
REMARK   75  A    between atoms: _185  and  _186
REMARK   76  A    between atoms: _185  and  _188
REMARK   77  A    between atoms: _191  and  _193
REMARK   78  A    between atoms: _193  and  _194
REMARK   79  A    between atoms: _193  and  _196
REMARK   80  A    between atoms: _196  and  _197
REMARK   81  A    between atoms: _197  and  _198
REMARK   82  A    between atoms: _198  and  _199
REMARK   83  A    between atoms: _208  and  _210
REMARK   84  A    between atoms: _210  and  _211
REMARK   85  A    between atoms: _210  and  _213
REMARK   86  A    between atoms: _213  and  _214
REMARK   87  A    between atoms: _217  and  _219
REMARK   88  A    between atoms: _219  and  _220
REMARK   89  A    between atoms: _219  and  _222
REMARK   90  A    between atoms: _225  and  _227
REMARK   91  A    between atoms: _227  and  _228
REMARK   92  A    between atoms: _231  and  _233
REMARK   93  A    between atoms: _233  and  _234
REMARK   94  A    between atoms: _236  and  _238
REMARK   95  A    between atoms: _238  and  _239
REMARK   96  A    between atoms: _238  and  _241
REMARK   97  A    between atoms: _241  and  _242
REMARK   98  A    between atoms: _247  and  _249
REMARK   99  A    between atoms: _249  and  _250
REMARK  100  A    between atoms: _249  and  _252
REMARK  101  A    between atoms: _252  and  _253
REMARK  102  A    between atoms: _253  and  _254
REMARK  103  A    between atoms: _254  and  _255
REMARK  104  A    between atoms: _264  and  _266
REMARK  105  A    between atoms: _266  and  _267
REMARK  106  A    between atoms: _266  and  _269
REMARK  107  A    between atoms: _269  and  _270
REMARK  108  A    between atoms: _273  and  _275
REMARK  109  A    between atoms: _275  and  _276
REMARK  110  A    between atoms: _275  and  _278
REMARK  111  A    between atoms: _278  and  _279
REMARK  112  A    between atoms: _281  and  _283
REMARK  113  A    between atoms: _283  and  _284
REMARK  114  A    between atoms: _283  and  _286
REMARK  115  A    between atoms: _286  and  _287
REMARK  116  A    between atoms: _287  and  _390
REMARK  117  A    between atoms: _288  and  _290
REMARK  118  A    between atoms: _290  and  _291
REMARK  119  A    between atoms: _290  and  _293
REMARK  120  A    between atoms: _293  and  _294
REMARK  121  A    between atoms: _294  and  _295
REMARK  122  A    between atoms: _300  and  _302
REMARK  123  A    between atoms: _302  and  _303
REMARK  124  A    between atoms: _305  and  _307
REMARK  125  A    between atoms: _307  and  _308
REMARK  126  A    between atoms: _307  and  _310
REMARK  127  A    between atoms: _310  and  _311
REMARK  128  A    between atoms: _314  and  _316
REMARK  129  A    between atoms: _316  and  _317
REMARK  130  A    between atoms: _316  and  _319
REMARK  131  A    between atoms: _319  and  _320
REMARK  132  A    between atoms: _322  and  _324
REMARK  133  A    between atoms: _324  and  _325
REMARK  134  A    between atoms: _327  and  _329
REMARK  135  A    between atoms: _329  and  _330
REMARK  136  A    between atoms: _332  and  _334
REMARK  137  A    between atoms: _334  and  _335
REMARK  138  A    between atoms: _334  and  _337
REMARK  139  A    between atoms: _340  and  _342
REMARK  140  A    between atoms: _342  and  _343
REMARK  141  A    between atoms: _342  and  _345
REMARK  142  A    between atoms: _345  and  _346
REMARK  143  A    between atoms: _348  and  _350
REMARK  144  A    between atoms: _350  and  _351
REMARK  145  A    between atoms: _350  and  _353
REMARK  146  A    between atoms: _353  and  _354
REMARK  147  A    between atoms: _364  and  _366
REMARK  148  A    between atoms: _366  and  _367
REMARK  149  A    between atoms: _369  and  _371
REMARK  150  A    between atoms: _371  and  _372
REMARK  151  A    between atoms: _371  and  _374
REMARK  152  A    between atoms: _374  and  _375
REMARK  153  A    between atoms: _375  and  _376
REMARK  154  A    between atoms: _379  and  _381
REMARK  155  A    between atoms: _381  and  _382
REMARK  156  A    between atoms: _384  and  _386
REMARK  157  A    between atoms: _386  and  _387
REMARK  158  A    between atoms: _386  and  _389
REMARK  159  A    between atoms: _389  and  _390
REMARK  160  A    between atoms: _391  and  _393
REMARK  161  A    between atoms: _393  and  _394
REMARK  162  A    between atoms: _397  and  _399
REMARK  163  A    between atoms: _399  and  _400
REMARK  164  A    between atoms: _399  and  _402
REMARK  165  A    between atoms: _402  and  _403
REMARK  166  A    between atoms: _403  and  _404
REMARK  167  A    between atoms: _409  and  _411
REMARK  168  A    between atoms: _411  and  _412
REMARK  169  A    between atoms: _411  and  _414
REMARK  170  A    between atoms: _414  and  _415
REMARK  171  A    between atoms: _420  and  _422
REMARK  172  A    between atoms: _422  and  _423
REMARK  173  A    between atoms: _422  and  _425
REMARK  174  A    between atoms: _425  and  _426
REMARK  175  A    between atoms: _426  and  _427
REMARK  176  A    between atoms: _427  and  _428
REMARK  177  A    between atoms: _438  and  _439
REMARK  178  A    between atoms: _444  and  _446
REMARK  179  A    between atoms: _446  and  _447
REMARK  180  A    between atoms: _449  and  _451
REMARK  181  A    between atoms: _451  and  _452
REMARK  182  A    between atoms: _451  and  _454
REMARK  183  A    between atoms: _454  and  _455
REMARK  184  A    between atoms: _458  and  _460
REMARK  185  A    between atoms: _460  and  _461
REMARK  186  A    between atoms: _460  and  _463
REMARK  187  A    between atoms: _463  and  _464
REMARK  188  A    between atoms: _469  and  _470
REMARK  189  A    between atoms: _472  and  _474
REMARK  190  A    between atoms: _474  and  _475
REMARK  191  A    between atoms: _478  and  _479
REMARK  192  A    between atoms: _484  and  _486
REMARK  193  A    between atoms: _486  and  _487
REMARK  194  A    between atoms: _486  and  _489
REMARK  195  A    between atoms: _489  and  _490
REMARK  196  A    between atoms: _493  and  _495
REMARK  197  A    between atoms: _495  and  _496
REMARK  198  A    between atoms: _495  and  _498
REMARK  199  A    between atoms: _501  and  _503
REMARK  200  A    between atoms: _503  and  _504
REMARK  201  A    between atoms: _503  and  _506
REMARK  202  A    between atoms: _506  and  _507
REMARK  203  A    between atoms: _513  and  _515
REMARK  204  A    between atoms: _515  and  _516
REMARK  205  A    between atoms: _515  and  _518
REMARK  206  A    between atoms: _518  and  _519
REMARK  207  A    between atoms: _524  and  _525
REMARK  208  A    between atoms: _527  and  _529
REMARK  209  A    between atoms: _529  and  _530
REMARK  210  A    between atoms: _529  and  _532
REMARK  211  A    between atoms: _532  and  _533
REMARK  212  A    between atoms: _536  and  _538
REMARK  213  A    between atoms: _538  and  _539
REMARK  214  A    between atoms: _542  and  _544
REMARK  215  A    between atoms: _544  and  _545
REMARK  216  A    between atoms: _544  and  _547
REMARK  217  A    between atoms: _547  and  _548
REMARK  218  A    between atoms: _548  and  _549
REMARK  219  A    between atoms: _554  and  _556
REMARK  220  A    between atoms: _556  and  _557
REMARK  221  A    between atoms: _556  and  _559
REMARK  222  A    between atoms: _559  and  _560
REMARK                            x       y       z     vdW  Elec       q    Type
REMARK                         _______ _______ _______ _____ _____    ______ ____
ROOT
ATOM      1  CA  ASP A   1      19.301  87.284  83.701  0.00  0.00    +0.144 C 
ENDROOT
BRANCH   1   2
ATOM      2  N   ASP A   1      18.671  86.525  84.773  0.00  0.00    -0.239 NA
ATOM      3  H   ASP A   1      19.265  85.921  85.376  0.00  0.00    +0.142 HD
ENDBRANCH   1   2
BRANCH   1   4
ATOM      4  C   ASP A   1      18.606  87.067  82.354  0.00  0.00    +0.225 C 
ATOM      5  O   ASP A   1      18.020  86.002  82.105  0.00  0.00    -0.287 OA
ENDBRANCH   1   4
BRANCH   1   6
ATOM      6  CB  ASP A   1      20.776  86.908  83.584  0.00  0.00    +0.139 C 
BRANCH   6   7
ATOM      7  CG  ASP A   1      21.569  87.231  84.847  0.00  0.00    +0.367 C 
ATOM      8  OD2 ASP A   1      20.980  87.798  85.796  0.00  0.00    -0.246 OA
ATOM      9  OD1 ASP A   1      22.787  86.920  84.893  0.00  0.00    -0.246 OA
ENDBRANCH   6   7
ENDBRANCH   1   6
TORSDOF 4
REMARK  Name = ../refined-set-2016/2za5/2za5_pocket.pdb
REMARK  222 active torsions:
REMARK  status: ('A' for Active; 'I' for Inactive)
REMARK    1  A    between atoms: _1  and  _5
REMARK    2  A    between atoms: _5  and  _6
REMARK    3  A    between atoms: _5  and  _8
REMARK    4  A    between atoms: _8  and  _9
REMARK    5  A    between atoms: _12  and  _14
REMARK    6  A    between atoms: _14  and  _15
REMARK    7  A    between atoms: _14  and  _17
REMARK    8  A    between atoms: _20  and  _22
REMARK    9  A    between atoms: _22  and  _23
REMARK   10  A    between atoms: _22  and  _25
REMARK   11  A    between atoms: _27  and  _29
REMARK   12  A    between atoms: _29  and  _30
REMARK   13  A    between atoms: _29  and  _32
REMARK   14  A    between atoms: _32  and  _33
REMARK   15  A    between atoms: _38  and  _40
REMARK   16  A    between atoms: _40  and  _41
REMARK   17  A    between atoms: _44  and  _46
REMARK   18  A    between atoms: _46  and  _47
REMARK   19  A    between atoms: _46  and  _49
REMARK   20  A    between atoms: _49  and  _50
REMARK   21  A    between atoms: _50  and  _51
REMARK   22  A    between atoms: _56  and  _58
REMARK   23  A    between atoms: _58  and  _59
REMARK   24  A    between atoms: _58  and  _61
REMARK   25  A    between atoms: _64  and  _66
REMARK   26  A    between atoms: _66  and  _67
REMARK   27  A    between atoms: _66  and  _69
REMARK   28  A    between atoms: _69  and  _70
REMARK   29  A    between atoms: _73  and  _75
REMARK   30  A    between atoms: _75  and  _76
REMARK   31  A    between atoms: _75  and  _78
REMARK   32  A    between atoms: _78  and  _79
REMARK   33  A    between atoms: _84  and  _86
REMARK   34  A    between atoms: _86  and  _87
REMARK   35  A    between atoms: _86  and  _89
REMARK   36  A    between atoms: _89  and  _90
REMARK   37  A    between atoms: _93  and  _95
REMARK   38  A    between atoms: _95  and  _96
REMARK   39  A    between atoms: _95  and  _98
REMARK   40  A    between atoms: _98  and  _99
REMARK   41  A    between atoms: _102  and  _104
REMARK   42  A    between atoms: _104  and  _105
REMARK   43  A    between atoms: _104  and  _107
REMARK   44  A    between atoms: _107  and  _108
REMARK   45  A    between atoms: _108  and  _109
REMARK   46  A    between atoms: _109  and  _110
REMARK   47  A    between atoms: _110  and  _111
REMARK   48  A    between atoms: _115  and  _117
REMARK   49  A    between atoms: _117  and  _118
REMARK   50  A    between atoms: _117  and  _120
REMARK   51  A    between atoms: _120  and  _121
REMARK   52  A    between atoms: _126  and  _127
REMARK   53  A    between atoms: _129  and  _131
REMARK   54  A    between atoms: _131  and  _132
REMARK   55  A    between atoms: _131  and  _134
REMARK   56  A    between atoms: _134  and  _135
REMARK   57  A    between atoms: _140  and  _142
REMARK   58  A    between atoms: _142  and  _143
REMARK   59  A    between atoms: _142  and  _145
REMARK   60  A    between atoms: _145  and  _146
REMARK   61  A    between atoms: _149  and  _151
REMARK   62  A    between atoms: _151  and  _152
REMARK   63  A    between atoms: _154  and  _156
REMARK   64  A    between atoms: _156  and  _157
REMARK   65  A    between atoms: _160  and  _162
REMARK   66  A    between atoms: _162  and  _163
REMARK   67  A    between atoms: _162  and  _165
REMARK   68  A    between atoms: _165  and  _166
REMARK   69  A    between atoms: _171  and  _172
REMARK   70  A    between atoms: _174  and  _176
REMARK   71  A    between atoms: _176  and  _177
REMARK   72  A    between atoms: _176  and  _179
REMARK   73  A    between atoms: _179  and  _180
REMARK   74  A    between atoms: _183  and  _185
REMARK   75  A    between atoms: _185  and  _186
REMARK   76  A    between atoms: _185  and  _188
REMARK   77  A    between atoms: _191  and  _193
REMARK   78  A    between atoms: _193  and  _194
REMARK   79  A    between atoms: _193  and  _196
REMARK   80  A    between atoms: _196  and  _197
REMARK   81  A    between atoms: _197  and  _198
REMARK   82  A    between atoms: _198  and  _199
REMARK   83  A    between atoms: _208  and  _210
REMARK   84  A    between atoms: _210  and  _211
REMARK   85  A    between atoms: _210  and  _213
REMARK   86  A    between atoms: _213  and  _214
REMARK   87  A    between atoms: _217  and  _219
REMARK   88  A    between atoms: _219  and  _220
REMARK   89  A    between atoms: _219  and  _222
REMARK   90  A    between atoms: _225  and  _227
REMARK   91  A    between atoms: _227  and  _228
REMARK   92  A    between atoms: _231  and  _233
REMARK   93  A    between atoms: _233  and  _234
REMARK   94  A    between atoms: _236  and  _238
REMARK   95  A    between atoms: _238  and  _239
REMARK   96  A    between atoms: _238  and  _241
REMARK   97  A    between atoms: _241  and  _242
REMARK   98  A    between atoms: _247  and  _249
REMARK   99  A    between atoms: _249  and  _250
REMARK  100  A    between atoms: _249  and  _252
REMARK  101  A    between atoms: _252  and  _253
REMARK  102  A    between atoms: _253  and  _254
REMARK  103  A    between atoms: _254  and  _255
REMARK  104  A    between atoms: _264  and  _266
REMARK  105  A    between atoms: _266  and  _267
REMARK  106  A    between atoms: _266  and  _269
REMARK  107  A    between atoms: _269  and  _270
REMARK  108  A    between atoms: _273  and  _275
REMARK  109  A    between atoms: _275  and  _276
REMARK  110  A    between atoms: _275  and  _278
REMARK  111  A    between atoms: _278  and  _279
REMARK  112  A    between atoms: _281  and  _283
REMARK  113  A    between atoms: _283  and  _284
REMARK  114  A    between atoms: _283  and  _286
REMARK  115  A    between atoms: _286  and  _287
REMARK  116  A    between atoms: _287  and  _390
REMARK  117  A    between atoms: _288  and  _290
REMARK  118  A    between atoms: _290  and  _291
REMARK  119  A    between atoms: _290  and  _293
REMARK  120  A    between atoms: _293  and  _294
REMARK  121  A    between atoms: _294  and  _295
REMARK  122  A    between atoms: _300  and  _302
REMARK  123  A    between atoms: _302  and  _303
REMARK  124  A    between atoms: _305  and  _307
REMARK  125  A    between atoms: _307  and  _308
REMARK  126  A    between atoms: _307  and  _310
REMARK  127  A    between atoms: _310  and  _311
REMARK  128  A    between atoms: _314  and  _316
REMARK  129  A    between atoms: _316  and  _317
REMARK  130  A    between atoms: _316  and  _319
REMARK  131  A    between atoms: _319  and  _320
REMARK  132  A    between atoms: _322  and  _324
REMARK  133  A    between atoms: _324  and  _325
REMARK  134  A    between atoms: _327  and  _329
REMARK  135  A    between atoms: _329  and  _330
REMARK  136  A    between atoms: _332  and  _334
REMARK  137  A    between atoms: _334  and  _335
REMARK  138  A    between atoms: _334  and  _337
REMARK  139  A    between atoms: _340  and  _342
REMARK  140  A    between atoms: _342  and  _343
REMARK  141  A    between atoms: _342  and  _345
REMARK  142  A    between atoms: _345  and  _346
REMARK  143  A    between atoms: _348  and  _350
REMARK  144  A    between atoms: _350  and  _351
REMARK  145  A    between atoms: _350  and  _353
REMARK  146  A    between atoms: _353  and  _354
REMARK  147  A    between atoms: _364  and  _366
REMARK  148  A    between atoms: _366  and  _367
REMARK  149  A    between atoms: _369  and  _371
REMARK  150  A    between atoms: _371  and  _372
REMARK  151  A    between atoms: _371  and  _374
REMARK  152  A    between atoms: _374  and  _375
REMARK  153  A    between atoms: _375  and  _376
REMARK  154  A    between atoms: _379  and  _381
REMARK  155  A    between atoms: _381  and  _382
REMARK  156  A    between atoms: _384  and  _386
REMARK  157  A    between atoms: _386  and  _387
REMARK  158  A    between atoms: _386  and  _389
REMARK  159  A    between atoms: _389  and  _390
REMARK  160  A    between atoms: _391  and  _393
REMARK  161  A    between atoms: _393  and  _394
REMARK  162  A    between atoms: _397  and  _399
REMARK  163  A    between atoms: _399  and  _400
REMARK  164  A    between atoms: _399  and  _402
REMARK  165  A    between atoms: _402  and  _403
REMARK  166  A    between atoms: _403  and  _404
REMARK  167  A    between atoms: _409  and  _411
REMARK  168  A    between atoms: _411  and  _412
REMARK  169  A    between atoms: _411  and  _414
REMARK  170  A    between atoms: _414  and  _415
REMARK  171  A    between atoms: _420  and  _422
REMARK  172  A    between atoms: _422  and  _423
REMARK  173  A    between atoms: _422  and  _425
REMARK  174  A    between atoms: _425  and  _426
REMARK  175  A    between atoms: _426  and  _427
REMARK  176  A    between atoms: _427  and  _428
REMARK  177  A    between atoms: _438  and  _439
REMARK  178  A    between atoms: _444  and  _446
REMARK  179  A    between atoms: _446  and  _447
REMARK  180  A    between atoms: _449  and  _451
REMARK  181  A    between atoms: _451  and  _452
REMARK  182  A    between atoms: _451  and  _454
REMARK  183  A    between atoms: _454  and  _455
REMARK  184  A    between atoms: _458  and  _460
REMARK  185  A    between atoms: _460  and  _461
REMARK  186  A    between atoms: _460  and  _463
REMARK  187  A    between atoms: _463  and  _464
REMARK  188  A    between atoms: _469  and  _470
REMARK  189  A    between atoms: _472  and  _474
REMARK  190  A    between atoms: _474  and  _475
REMARK  191  A    between atoms: _478  and  _479
REMARK  192  A    between atoms: _484  and  _486
REMARK  193  A    between atoms: _486  and  _487
REMARK  194  A    between atoms: _486  and  _489
REMARK  195  A    between atoms: _489  and  _490
REMARK  196  A    between atoms: _493  and  _495
REMARK  197  A    between atoms: _495  and  _496
REMARK  198  A    between atoms: _495  and  _498
REMARK  199  A    between atoms: _501  and  _503
REMARK  200  A    between atoms: _503  and  _504
REMARK  201  A    between atoms: _503  and  _506
REMARK  202  A    between atoms: _506  and  _507
REMARK  203  A    between atoms: _513  and  _515
REMARK  204  A    between atoms: _515  and  _516
REMARK  205  A    between atoms: _515  and  _518
REMARK  206  A    between atoms: _518  and  _519
REMARK  207  A    between atoms: _524  and  _525
REMARK  208  A    between atoms: _527  and  _529
REMARK  209  A    between atoms: _529  and  _530
REMARK  210  A    between atoms: _529  and  _532
REMARK  211  A    between atoms: _532  and  _533
REMARK  212  A    between atoms: _536  and  _538
REMARK  213  A    between atoms: _538  and  _539
REMARK  214  A    between atoms: _542  and  _544
REMARK  215  A    between atoms: _544  and  _545
REMARK  216  A    between atoms: _544  and  _547
REMARK  217  A    between atoms: _547  and  _548
REMARK  218  A    between atoms: _548  and  _549
REMARK  219  A    between atoms: _554  and  _556
REMARK  220  A    between atoms: _556  and  _557
REMARK  221  A    between atoms: _556  and  _559
REMARK  222  A    between atoms: _559  and  _560
REMARK                            x       y       z     vdW  Elec       q    Type
REMARK                         _______ _______ _______ _____ _____    ______ ____
ROOT
ATOM      1  C   ASN A   1      25.212  87.062  80.181  0.00  0.00    +0.239 C 
ATOM      2  N   ASP A   2      25.380  87.121  81.500  0.00  0.00    -0.298 N 
ATOM      3  H   ASP A   2      25.075  86.322  82.092  0.00  0.00    +0.150 HD
ATOM      4  O   ASN A   1      25.427  88.017  79.442  0.00  0.00    -0.274 OA
ENDROOT
BRANCH   1   5
ATOM      5  CA  ASN A   1      24.681  85.742  79.606  0.00  0.00    +0.154 C 
BRANCH   5   6
ATOM      6  N   ASN A   1      23.480  85.977  78.816  0.00  0.00    -0.238 NA
ATOM      7  H   ASN A   1      23.413  85.627  77.839  0.00  0.00    +0.142 HD
ENDBRANCH   5   6
BRANCH   5   8
ATOM      8  CB  ASN A   1      25.757  85.039  78.780  0.00  0.00    +0.111 C 
BRANCH   8   9
ATOM      9  CG  ASN A   1      25.282  83.712  78.217  0.00  0.00    +0.221 C 
ATOM     10  ND2 ASN A   1      25.103  82.729  79.082  0.00  0.00    -0.329 N 
ATOM     11 HD21 ASN A   1      25.302  82.882  80.091  0.00  0.00    +0.145 HD
ATOM     12 HD22 ASN A   1      24.763  81.803  78.753  0.00  0.00    +0.145 HD
ATOM     13  OD1 ASN A   1      25.062  83.585  77.016  0.00  0.00    -0.275 OA
ENDBRANCH   8   9
ENDBRANCH   5   8
ENDBRANCH   1   5
BRANCH   2  14
ATOM     14  CA  ASP A   2      25.990  88.299  82.133  0.00  0.00    +0.148 C 
BRANCH  14  15
ATOM     15  C   ASP A   2      25.168  89.600  81.961  0.00  0.00    +0.227 C 
ATOM     16  O   ASP A   2      25.699  90.703  82.046  0.00  0.00    -0.286 OA
ENDBRANCH  14  15
BRANCH  14  17
ATOM     17  CB  ASP A   2      27.410  88.490  81.572  0.00  0.00    +0.142 C 
BRANCH  17  18
ATOM     18  CG  ASP A   2      28.275  89.364  82.456  0.00  0.00    +0.367 C 
ATOM     19  OD2 ASP A   2      28.126  89.295  83.699  0.00  0.00    -0.246 OA
ATOM     20  OD1 ASP A   2      29.115  90.113  81.905  0.00  0.00    -0.246 OA
ENDBRANCH  17  18
ENDBRANCH  14  17
ENDBRANCH   2  14
TORSDOF 8
REMARK  Name = ../refined-set-2016/2za5/2za5_pocket.pdb
REMARK  222 active torsions:
REMARK  status: ('A' for Active; 'I' for Inactive)
REMARK    1  A    between atoms: _1  and  _5
REMARK    2  A    between atoms: _5  and  _6
REMARK    3  A    between atoms: _5  and  _8
REMARK    4  A    between atoms: _8  and  _9
REMARK    5  A    between atoms: _12  and  _14
REMARK    6  A    between atoms: _14  and  _15
REMARK    7  A    between atoms: _14  and  _17
REMARK    8  A    between atoms: _20  and  _22
REMARK    9  A    between atoms: _22  and  _23
REMARK   10  A    between atoms: _22  and  _25
REMARK   11  A    between atoms: _27  and  _29
REMARK   12  A    between atoms: _29  and  _30
REMARK   13  A    between atoms: _29  and  _32
REMARK   14  A    between atoms: _32  and  _33
REMARK   15  A    between atoms: _38  and  _40
REMARK   16  A    between atoms: _40  and  _41
REMARK   17  A    between atoms: _44  and  _46
REMARK   18  A    between atoms: _46  and  _47
REMARK   19  A    between atoms: _46  and  _49
REMARK   20  A    between atoms: _49  and  _50
REMARK   21  A    between atoms: _50  and  _51
REMARK   22  A    between atoms: _56  and  _58
REMARK   23  A    between atoms: _58  and  _59
REMARK   24  A    between atoms: _58  and  _61
REMARK   25  A    between atoms: _64  and  _66
REMARK   26  A    between atoms: _66  and  _67
REMARK   27  A    between atoms: _66  and  _69
REMARK   28  A    between atoms: _69  and  _70
REMARK   29  A    between atoms: _73  and  _75
REMARK   30  A    between atoms: _75  and  _76
REMARK   31  A    between atoms: _75  and  _78
REMARK   32  A    between atoms: _78  and  _79
REMARK   33  A    between atoms: _84  and  _86
REMARK   34  A    between atoms: _86  and  _87
REMARK   35  A    between atoms: _86  and  _89
REMARK   36  A    between atoms: _89  and  _90
REMARK   37  A    between atoms: _93  and  _95
REMARK   38  A    between atoms: _95  and  _96
REMARK   39  A    between atoms: _95  and  _98
REMARK   40  A    between atoms: _98  and  _99
REMARK   41  A    between atoms: _102  and  _104
REMARK   42  A    between atoms: _104  and  _105
REMARK   43  A    between atoms: _104  and  _107
REMARK   44  A    between atoms: _107  and  _108
REMARK   45  A    between atoms: _108  and  _109
REMARK   46  A    between atoms: _109  and  _110
REMARK   47  A    between atoms: _110  and  _111
REMARK   48  A    between atoms: _115  and  _117
REMARK   49  A    between atoms: _117  and  _118
REMARK   50  A    between atoms: _117  and  _120
REMARK   51  A    between atoms: _120  and  _121
REMARK   52  A    between atoms: _126  and  _127
REMARK   53  A    between atoms: _129  and  _131
REMARK   54  A    between atoms: _131  and  _132
REMARK   55  A    between atoms: _131  and  _134
REMARK   56  A    between atoms: _134  and  _135
REMARK   57  A    between atoms: _140  and  _142
REMARK   58  A    between atoms: _142  and  _143
REMARK   59  A    between atoms: _142  and  _145
REMARK   60  A    between atoms: _145  and  _146
REMARK   61  A    between atoms: _149  and  _151
REMARK   62  A    between atoms: _151  and  _152
REMARK   63  A    between atoms: _154  and  _156
REMARK   64  A    between atoms: _156  and  _157
REMARK   65  A    between atoms: _160  and  _162
REMARK   66  A    between atoms: _162  and  _163
REMARK   67  A    between atoms: _162  and  _165
REMARK   68  A    between atoms: _165  and  _166
REMARK   69  A    between atoms: _171  and  _172
REMARK   70  A    between atoms: _174  and  _176
REMARK   71  A    between atoms: _176  and  _177
REMARK   72  A    between atoms: _176  and  _179
REMARK   73  A    between atoms: _179  and  _180
REMARK   74  A    between atoms: _183  and  _185
REMARK   75  A    between atoms: _185  and  _186
REMARK   76  A    between atoms: _185  and  _188
REMARK   77  A    between atoms: _191  and  _193
REMARK   78  A    between atoms: _193  and  _194
REMARK   79  A    between atoms: _193  and  _196
REMARK   80  A    between atoms: _196  and  _197
REMARK   81  A    between atoms: _197  and  _198
REMARK   82  A    between atoms: _198  and  _199
REMARK   83  A    between atoms: _208  and  _210
REMARK   84  A    between atoms: _210  and  _211
REMARK   85  A    between atoms: _210  and  _213
REMARK   86  A    between atoms: _213  and  _214
REMARK   87  A    between atoms: _217  and  _219
REMARK   88  A    between atoms: _219  and  _220
REMARK   89  A    between atoms: _219  and  _222
REMARK   90  A    between atoms: _225  and  _227
REMARK   91  A    between atoms: _227  and  _228
REMARK   92  A    between atoms: _231  and  _233
REMARK   93  A    between atoms: _233  and  _234
REMARK   94  A    between atoms: _236  and  _238
REMARK   95  A    between atoms: _238  and  _239
REMARK   96  A    between atoms: _238  and  _241
REMARK   97  A    between atoms: _241  and  _242
REMARK   98  A    between atoms: _247  and  _249
REMARK   99  A    between atoms: _249  and  _250
REMARK  100  A    between atoms: _249  and  _252
REMARK  101  A    between atoms: _252  and  _253
REMARK  102  A    between atoms: _253  and  _254
REMARK  103  A    between atoms: _254  and  _255
REMARK  104  A    between atoms: _264  and  _266
REMARK  105  A    between atoms: _266  and  _267
REMARK  106  A    between atoms: _266  and  _269
REMARK  107  A    between atoms: _269  and  _270
REMARK  108  A    between atoms: _273  and  _275
REMARK  109  A    between atoms: _275  and  _276
REMARK  110  A    between atoms: _275  and  _278
REMARK  111  A    between atoms: _278  and  _279
REMARK  112  A    between atoms: _281  and  _283
REMARK  113  A    between atoms: _283  and  _284
REMARK  114  A    between atoms: _283  and  _286
REMARK  115  A    between atoms: _286  and  _287
REMARK  116  A    between atoms: _287  and  _390
REMARK  117  A    between atoms: _288  and  _290
REMARK  118  A    between atoms: _290  and  _291
REMARK  119  A    between atoms: _290  and  _293
REMARK  120  A    between atoms: _293  and  _294
REMARK  121  A    between atoms: _294  and  _295
REMARK  122  A    between atoms: _300  and  _302
REMARK  123  A    between atoms: _302  and  _303
REMARK  124  A    between atoms: _305  and  _307
REMARK  125  A    between atoms: _307  and  _308
REMARK  126  A    between atoms: _307  and  _310
REMARK  127  A    between atoms: _310  and  _311
REMARK  128  A    between atoms: _314  and  _316
REMARK  129  A    between atoms: _316  and  _317
REMARK  130  A    between atoms: _316  and  _319
REMARK  131  A    between atoms: _319  and  _320
REMARK  132  A    between atoms: _322  and  _324
REMARK  133  A    between atoms: _324  and  _325
REMARK  134  A    between atoms: _327  and  _329
REMARK  135  A    between atoms: _329  and  _330
REMARK  136  A    between atoms: _332  and  _334
REMARK  137  A    between atoms: _334  and  _335
REMARK  138  A    between atoms: _334  and  _337
REMARK  139  A    between atoms: _340  and  _342
REMARK  140  A    between atoms: _342  and  _343
REMARK  141  A    between atoms: _342  and  _345
REMARK  142  A    between atoms: _345  and  _346
REMARK  143  A    between atoms: _348  and  _350
REMARK  144  A    between atoms: _350  and  _351
REMARK  145  A    between atoms: _350  and  _353
REMARK  146  A    between atoms: _353  and  _354
REMARK  147  A    between atoms: _364  and  _366
REMARK  148  A    between atoms: _366  and  _367
REMARK  149  A    between atoms: _369  and  _371
REMARK  150  A    between atoms: _371  and  _372
REMARK  151  A    between atoms: _371  and  _374
REMARK  152  A    between atoms: _374  and  _375
REMARK  153  A    between atoms: _375  and  _376
REMARK  154  A    between atoms: _379  and  _381
REMARK  155  A    between atoms: _381  and  _382
REMARK  156  A    between atoms: _384  and  _386
REMARK  157  A    between atoms: _386  and  _387
REMARK  158  A    between atoms: _386  and  _389
REMARK  159  A    between atoms: _389  and  _390
REMARK  160  A    between atoms: _391  and  _393
REMARK  161  A    between atoms: _393  and  _394
REMARK  162  A    between atoms: _397  and  _399
REMARK  163  A    between atoms: _399  and  _400
REMARK  164  A    between atoms: _399  and  _402
REMARK  165  A    between atoms: _402  and  _403
REMARK  166  A    between atoms: _403  and  _404
REMARK  167  A    between atoms: _409  and  _411
REMARK  168  A    between atoms: _411  and  _412
REMARK  169  A    between atoms: _411  and  _414
REMARK  170  A    between atoms: _414  and  _415
REMARK  171  A    between atoms: _420  and  _422
REMARK  172  A    between atoms: _422  and  _423
REMARK  173  A    between atoms: _422  and  _425
REMARK  174  A    between atoms: _425  and  _426
REMARK  175  A    between atoms: _426  and  _427
REMARK  176  A    between atoms: _427  and  _428
REMARK  177  A    between atoms: _438  and  _439
REMARK  178  A    between atoms: _444  and  _446
REMARK  179  A    between atoms: _446  and  _447
REMARK  180  A    between atoms: _449  and  _451
REMARK  181  A    between atoms: _451  and  _452
REMARK  182  A    between atoms: _451  and  _454
REMARK  183  A    between atoms: _454  and  _455
REMARK  184  A    between atoms: _458  and  _460
REMARK  185  A    between atoms: _460  and  _461
REMARK  186  A    between atoms: _460  and  _463
REMARK  187  A    between atoms: _463  and  _464
REMARK  188  A    between atoms: _469  and  _470
REMARK  189  A    between atoms: _472  and  _474
REMARK  190  A    between atoms: _474  and  _475
REMARK  191  A    between atoms: _478  and  _479
REMARK  192  A    between atoms: _484  and  _486
REMARK  193  A    between atoms: _486  and  _487
REMARK  194  A    between atoms: _486  and  _489
REMARK  195  A    between atoms: _489  and  _490
REMARK  196  A    between atoms: _493  and  _495
REMARK  197  A    between atoms: _495  and  _496
REMARK  198  A    between atoms: _495  and  _498
REMARK  199  A    between atoms: _501  and  _503
REMARK  200  A    between atoms: _503  and  _504
REMARK  201  A    between atoms: _503  and  _506
REMARK  202  A    between atoms: _506  and  _507
REMARK  203  A    between atoms: _513  and  _515
REMARK  204  A    between atoms: _515  and  _516
REMARK  205  A    between atoms: _515  and  _518
REMARK  206  A    between atoms: _518  and  _519
REMARK  207  A    between atoms: _524  and  _525
REMARK  208  A    between atoms: _527  and  _529
REMARK  209  A    between atoms: _529  and  _530
REMARK  210  A    between atoms: _529  and  _532
REMARK  211  A    between atoms: _532  and  _533
REMARK  212  A    between atoms: _536  and  _538
REMARK  213  A    between atoms: _538  and  _539
REMARK  214  A    between atoms: _542  and  _544
REMARK  215  A    between atoms: _544  and  _545
REMARK  216  A    between atoms: _544  and  _547
REMARK  217  A    between atoms: _547  and  _548
REMARK  218  A    between atoms: _548  and  _549
REMARK  219  A    between atoms: _554  and  _556
REMARK  220  A    between atoms: _556  and  _557
REMARK  221  A    between atoms: _556  and  _559
REMARK  222  A    between atoms: _559  and  _560
REMARK                            x       y       z     vdW  Elec       q    Type
REMARK                         _______ _______ _______ _____ _____    ______ ____
ROOT
ATOM      1  CA  ASP A   1      23.294  64.291  75.470  0.00  0.00    +0.144 C 
ENDROOT
BRANCH   1   2
ATOM      2  N   ASP A   1      21.994  64.833  75.127  0.00  0.00    -0.239 NA
ATOM      3  H   ASP A   1      21.153  64.225  75.197  0.00  0.00    +0.142 HD
ENDBRANCH   1   2
BRANCH   1   4
ATOM      4  C   ASP A   1      24.272  64.457  74.313  0.00  0.00    +0.225 C 
ATOM      5  O   ASP A   1      25.377  64.930  74.518  0.00  0.00    -0.287 OA
ENDBRANCH   1   4
BRANCH   1   6
ATOM      6  CB  ASP A   1      23.202  62.829  75.917  0.00  0.00    +0.139 C 
BRANCH   6   7
ATOM      7  CG  ASP A   1      24.467  62.358  76.625  0.00  0.00    +0.367 C 
ATOM      8  OD2 ASP A   1      24.857  63.004  77.619  0.00  0.00    -0.246 OA
ATOM      9  OD1 ASP A   1      25.079  61.348  76.198  0.00  0.00    -0.246 OA
ENDBRANCH   6   7
ENDBRANCH   1   6
TORSDOF 4
REMARK  Name = ../refined-set-2016/2za5/2za5_pocket.pdb
REMARK  222 active torsions:
REMARK  status: ('A' for Active; 'I' for Inactive)
REMARK    1  A    between atoms: _1  and  _5
REMARK    2  A    between atoms: _5  and  _6
REMARK    3  A    between atoms: _5  and  _8
REMARK    4  A    between atoms: _8  and  _9
REMARK    5  A    between atoms: _12  and  _14
REMARK    6  A    between atoms: _14  and  _15
REMARK    7  A    between atoms: _14  and  _17
REMARK    8  A    between atoms: _20  and  _22
REMARK    9  A    between atoms: _22  and  _23
REMARK   10  A    between atoms: _22  and  _25
REMARK   11  A    between atoms: _27  and  _29
REMARK   12  A    between atoms: _29  and  _30
REMARK   13  A    between atoms: _29  and  _32
REMARK   14  A    between atoms: _32  and  _33
REMARK   15  A    between atoms: _38  and  _40
REMARK   16  A    between atoms: _40  and  _41
REMARK   17  A    between atoms: _44  and  _46
REMARK   18  A    between atoms: _46  and  _47
REMARK   19  A    between atoms: _46  and  _49
REMARK   20  A    between atoms: _49  and  _50
REMARK   21  A    between atoms: _50  and  _51
REMARK   22  A    between atoms: _56  and  _58
REMARK   23  A    between atoms: _58  and  _59
REMARK   24  A    between atoms: _58  and  _61
REMARK   25  A    between atoms: _64  and  _66
REMARK   26  A    between atoms: _66  and  _67
REMARK   27  A    between atoms: _66  and  _69
REMARK   28  A    between atoms: _69  and  _70
REMARK   29  A    between atoms: _73  and  _75
REMARK   30  A    between atoms: _75  and  _76
REMARK   31  A    between atoms: _75  and  _78
REMARK   32  A    between atoms: _78  and  _79
REMARK   33  A    between atoms: _84  and  _86
REMARK   34  A    between atoms: _86  and  _87
REMARK   35  A    between atoms: _86  and  _89
REMARK   36  A    between atoms: _89  and  _90
REMARK   37  A    between atoms: _93  and  _95
REMARK   38  A    between atoms: _95  and  _96
REMARK   39  A    between atoms: _95  and  _98
REMARK   40  A    between atoms: _98  and  _99
REMARK   41  A    between atoms: _102  and  _104
REMARK   42  A    between atoms: _104  and  _105
REMARK   43  A    between atoms: _104  and  _107
REMARK   44  A    between atoms: _107  and  _108
REMARK   45  A    between atoms: _108  and  _109
REMARK   46  A    between atoms: _109  and  _110
REMARK   47  A    between atoms: _110  and  _111
REMARK   48  A    between atoms: _115  and  _117
REMARK   49  A    between atoms: _117  and  _118
REMARK   50  A    between atoms: _117  and  _120
REMARK   51  A    between atoms: _120  and  _121
REMARK   52  A    between atoms: _126  and  _127
REMARK   53  A    between atoms: _129  and  _131
REMARK   54  A    between atoms: _131  and  _132
REMARK   55  A    between atoms: _131  and  _134
REMARK   56  A    between atoms: _134  and  _135
REMARK   57  A    between atoms: _140  and  _142
REMARK   58  A    between atoms: _142  and  _143
REMARK   59  A    between atoms: _142  and  _145
REMARK   60  A    between atoms: _145  and  _146
REMARK   61  A    between atoms: _149  and  _151
REMARK   62  A    between atoms: _151  and  _152
REMARK   63  A    between atoms: _154  and  _156
REMARK   64  A    between atoms: _156  and  _157
REMARK   65  A    between atoms: _160  and  _162
REMARK   66  A    between atoms: _162  and  _163
REMARK   67  A    between atoms: _162  and  _165
REMARK   68  A    between atoms: _165  and  _166
REMARK   69  A    between atoms: _171  and  _172
REMARK   70  A    between atoms: _174  and  _176
REMARK   71  A    between atoms: _176  and  _177
REMARK   72  A    between atoms: _176  and  _179
REMARK   73  A    between atoms: _179  and  _180
REMARK   74  A    between atoms: _183  and  _185
REMARK   75  A    between atoms: _185  and  _186
REMARK   76  A    between atoms: _185  and  _188
REMARK   77  A    between atoms: _191  and  _193
REMARK   78  A    between atoms: _193  and  _194
REMARK   79  A    between atoms: _193  and  _196
REMARK   80  A    between atoms: _196  and  _197
REMARK   81  A    between atoms: _197  and  _198
REMARK   82  A    between atoms: _198  and  _199
REMARK   83  A    between atoms: _208  and  _210
REMARK   84  A    between atoms: _210  and  _211
REMARK   85  A    between atoms: _210  and  _213
REMARK   86  A    between atoms: _213  and  _214
REMARK   87  A    between atoms: _217  and  _219
REMARK   88  A    between atoms: _219  and  _220
REMARK   89  A    between atoms: _219  and  _222
REMARK   90  A    between atoms: _225  and  _227
REMARK   91  A    between atoms: _227  and  _228
REMARK   92  A    between atoms: _231  and  _233
REMARK   93  A    between atoms: _233  and  _234
REMARK   94  A    between atoms: _236  and  _238
REMARK   95  A    between atoms: _238  and  _239
REMARK   96  A    between atoms: _238  and  _241
REMARK   97  A    between atoms: _241  and  _242
REMARK   98  A    between atoms: _247  and  _249
REMARK   99  A    between atoms: _249  and  _250
REMARK  100  A    between atoms: _249  and  _252
REMARK  101  A    between atoms: _252  and  _253
REMARK  102  A    between atoms: _253  and  _254
REMARK  103  A    between atoms: _254  and  _255
REMARK  104  A    between atoms: _264  and  _266
REMARK  105  A    between atoms: _266  and  _267
REMARK  106  A    between atoms: _266  and  _269
REMARK  107  A    between atoms: _269  and  _270
REMARK  108  A    between atoms: _273  and  _275
REMARK  109  A    between atoms: _275  and  _276
REMARK  110  A    between atoms: _275  and  _278
REMARK  111  A    between atoms: _278  and  _279
REMARK  112  A    between atoms: _281  and  _283
REMARK  113  A    between atoms: _283  and  _284
REMARK  114  A    between atoms: _283  and  _286
REMARK  115  A    between atoms: _286  and  _287
REMARK  116  A    between atoms: _287  and  _390
REMARK  117  A    between atoms: _288  and  _290
REMARK  118  A    between atoms: _290  and  _291
REMARK  119  A    between atoms: _290  and  _293
REMARK  120  A    between atoms: _293  and  _294
REMARK  121  A    between atoms: _294  and  _295
REMARK  122  A    between atoms: _300  and  _302
REMARK  123  A    between atoms: _302  and  _303
REMARK  124  A    between atoms: _305  and  _307
REMARK  125  A    between atoms: _307  and  _308
REMARK  126  A    between atoms: _307  and  _310
REMARK  127  A    between atoms: _310  and  _311
REMARK  128  A    between atoms: _314  and  _316
REMARK  129  A    between atoms: _316  and  _317
REMARK  130  A    between atoms: _316  and  _319
REMARK  131  A    between atoms: _319  and  _320
REMARK  132  A    between atoms: _322  and  _324
REMARK  133  A    between atoms: _324  and  _325
REMARK  134  A    between atoms: _327  and  _329
REMARK  135  A    between atoms: _329  and  _330
REMARK  136  A    between atoms: _332  and  _334
REMARK  137  A    between atoms: _334  and  _335
REMARK  138  A    between atoms: _334  and  _337
REMARK  139  A    between atoms: _340  and  _342
REMARK  140  A    between atoms: _342  and  _343
REMARK  141  A    between atoms: _342  and  _345
REMARK  142  A    between atoms: _345  and  _346
REMARK  143  A    between atoms: _348  and  _350
REMARK  144  A    between atoms: _350  and  _351
REMARK  145  A    between atoms: _350  and  _353
REMARK  146  A    between atoms: _353  and  _354
REMARK  147  A    between atoms: _364  and  _366
REMARK  148  A    between atoms: _366  and  _367
REMARK  149  A    between atoms: _369  and  _371
REMARK  150  A    between atoms: _371  and  _372
REMARK  151  A    between atoms: _371  and  _374
REMARK  152  A    between atoms: _374  and  _375
REMARK  153  A    between atoms: _375  and  _376
REMARK  154  A    between atoms: _379  and  _381
REMARK  155  A    between atoms: _381  and  _382
REMARK  156  A    between atoms: _384  and  _386
REMARK  157  A    between atoms: _386  and  _387
REMARK  158  A    between atoms: _386  and  _389
REMARK  159  A    between atoms: _389  and  _390
REMARK  160  A    between atoms: _391  and  _393
REMARK  161  A    between atoms: _393  and  _394
REMARK  162  A    between atoms: _397  and  _399
REMARK  163  A    between atoms: _399  and  _400
REMARK  164  A    between atoms: _399  and  _402
REMARK  165  A    between atoms: _402  and  _403
REMARK  166  A    between atoms: _403  and  _404
REMARK  167  A    between atoms: _409  and  _411
REMARK  168  A    between atoms: _411  and  _412
REMARK  169  A    between atoms: _411  and  _414
REMARK  170  A    between atoms: _414  and  _415
REMARK  171  A    between atoms: _420  and  _422
REMARK  172  A    between atoms: _422  and  _423
REMARK  173  A    between atoms: _422  and  _425
REMARK  174  A    between atoms: _425  and  _426
REMARK  175  A    between atoms: _426  and  _427
REMARK  176  A    between atoms: _427  and  _428
REMARK  177  A    between atoms: _438  and  _439
REMARK  178  A    between atoms: _444  and  _446
REMARK  179  A    between atoms: _446  and  _447
REMARK  180  A    between atoms: _449  and  _451
REMARK  181  A    between atoms: _451  and  _452
REMARK  182  A    between atoms: _451  and  _454
REMARK  183  A    between atoms: _454  and  _455
REMARK  184  A    between atoms: _458  and  _460
REMARK  185  A    between atoms: _460  and  _461
REMARK  186  A    between atoms: _460  and  _463
REMARK  187  A    between atoms: _463  and  _464
REMARK  188  A    between atoms: _469  and  _470
REMARK  189  A    between atoms: _472  and  _474
REMARK  190  A    between atoms: _474  and  _475
REMARK  191  A    between atoms: _478  and  _479
REMARK  192  A    between atoms: _484  and  _486
REMARK  193  A    between atoms: _486  and  _487
REMARK  194  A    between atoms: _486  and  _489
REMARK  195  A    between atoms: _489  and  _490
REMARK  196  A    between atoms: _493  and  _495
REMARK  197  A    between atoms: _495  and  _496
REMARK  198  A    between atoms: _495  and  _498
REMARK  199  A    between atoms: _501  and  _503
REMARK  200  A    between atoms: _503  and  _504
REMARK  201  A    between atoms: _503  and  _506
REMARK  202  A    between atoms: _506  and  _507
REMARK  203  A    between atoms: _513  and  _515
REMARK  204  A    between atoms: _515  and  _516
REMARK  205  A    between atoms: _515  and  _518
REMARK  206  A    between atoms: _518  and  _519
REMARK  207  A    between atoms: _524  and  _525
REMARK  208  A    between atoms: _527  and  _529
REMARK  209  A    between atoms: _529  and  _530
REMARK  210  A    between atoms: _529  and  _532
REMARK  211  A    between atoms: _532  and  _533
REMARK  212  A    between atoms: _536  and  _538
REMARK  213  A    between atoms: _538  and  _539
REMARK  214  A    between atoms: _542  and  _544
REMARK  215  A    between atoms: _544  and  _545
REMARK  216  A    between atoms: _544  and  _547
REMARK  217  A    between atoms: _547  and  _548
REMARK  218  A    between atoms: _548  and  _549
REMARK  219  A    between atoms: _554  and  _556
REMARK  220  A    between atoms: _556  and  _557
REMARK  221  A    between atoms: _556  and  _559
REMARK  222  A    between atoms: _559  and  _560
REMARK                            x       y       z     vdW  Elec       q    Type
REMARK                         _______ _______ _______ _____ _____    ______ ____
ROOT
ATOM      1  CA  LEU A   4      29.621  68.705  70.265  0.00  0.00    +0.149 C 
ENDROOT
BRANCH   1   2
ATOM      2  C   LEU A   4      30.445  69.873  70.832  0.00  0.00    +0.241 C 
ATOM      3  O   LEU A   4      29.995  70.594  71.727  0.00  0.00    -0.273 OA
ATOM      4  N   GLY A   5      31.642  70.078  70.298  0.00  0.00    -0.295 N 
ATOM      5  H   GLY A   5      31.939  69.506  69.482  0.00  0.00    +0.150 HD
BRANCH   4   6
ATOM      6  CA  GLY A   5      32.548  71.084  70.828  0.00  0.00    +0.176 C 
BRANCH   6   7
ATOM      7  C   GLY A   5      33.155  70.751  72.190  0.00  0.00    +0.243 C 
ATOM      8  O   GLY A   5      33.627  71.650  72.879  0.00  0.00    -0.273 OA
ATOM      9  N   ALA A   6      33.161  69.469  72.567  0.00  0.00    -0.297 N 
ATOM     10  H   ALA A   6      32.780  68.753  71.916  0.00  0.00    +0.150 HD
BRANCH   9  11
ATOM     11  CA  ALA A   6      33.687  69.034  73.869  0.00  0.00    +0.149 C 
ATOM     12  CB  ALA A   6      32.538  68.744  74.818  0.00  0.00    +0.031 C 
BRANCH  11  13
ATOM     13  C   ALA A   6      34.613  67.816  73.762  0.00  0.00    +0.241 C 
ATOM     14  N   TYR A   7      35.553  67.684  74.696  0.00  0.00    -0.297 N 
ATOM     15  H   TYR A   7      35.605  68.386  75.461  0.00  0.00    +0.150 HD
ATOM     16  O   ALA A   6      34.486  67.020  72.844  0.00  0.00    -0.273 OA
BRANCH  14  17
ATOM     17  CA  TYR A   7      36.516  66.580  74.679  0.00  0.00    +0.153 C 
BRANCH  17  18
ATOM     18  C   TYR A   7      35.895  65.268  75.172  0.00  0.00    +0.241 C 
ATOM     19  N   THR A   8      34.840  65.392  75.962  0.00  0.00    -0.296 N 
ATOM     20  H   THR A   8      34.408  66.332  76.073  0.00  0.00    +0.150 HD
ATOM     21  O   TYR A   7      36.350  64.186  74.837  0.00  0.00    -0.273 OA
BRANCH  19  22
ATOM     22  CA  THR A   8      34.263  64.275  76.678  0.00  0.00    +0.164 C 
BRANCH  22  23
ATOM     23  CB  THR A   8      33.039  64.754  77.431  0.00  0.00    +0.136 C 
ATOM     24  CG2 THR A   8      32.595  63.701  78.421  0.00  0.00    +0.034 C 
BRANCH  23  25
ATOM     25  OG1 THR A   8      33.363  65.977  78.123  0.00  0.00    -0.382 OA
ATOM     26  HG1 THR A   8      34.103  65.809  78.759  0.00  0.00    +0.210 HD
ENDBRANCH  23  25
ENDBRANCH  22  23
BRANCH  22  27
ATOM     27  C   THR A   8      33.896  63.080  75.796  0.00  0.00    +0.229 C 
ATOM     28  O   THR A   8      33.212  63.223  74.793  0.00  0.00    -0.286 OA
ENDBRANCH  22  27
ENDBRANCH  19  22
ENDBRANCH  17  18
BRANCH  17  29
ATOM     29  CB  TYR A   7      37.738  66.909  75.546  0.00  0.00    +0.055 C 
BRANCH  29  30
ATOM     30  CG  TYR A   7      38.684  67.916  74.931  0.00  0.00    -0.020 A 
ATOM     31  CD2 TYR A   7      38.766  69.213  75.426  0.00  0.00    -0.001 A 
ATOM     32  CE2 TYR A   7      39.638  70.155  74.860  0.00  0.00    +0.036 A 
ATOM     33  CZ  TYR A   7      40.440  69.793  73.799  0.00  0.00    +0.134 A 
ATOM     34  CE1 TYR A   7      40.378  68.507  73.279  0.00  0.00    +0.036 A 
ATOM     35  CD1 TYR A   7      39.504  67.570  73.850  0.00  0.00    -0.001 A 
BRANCH  33  36
ATOM     36  OH  TYR A   7      41.290  70.727  73.244  0.00  0.00    -0.506 OA
ATOM     37  HH  TYR A   7      41.792  70.312  72.498  0.00  0.00    +0.292 HD
ENDBRANCH  33  36
ENDBRANCH  29  30
ENDBRANCH  17  29
ENDBRANCH  14  17
ENDBRANCH  11  13
ENDBRANCH   9  11
ENDBRANCH   6   7
ENDBRANCH   4   6
ENDBRANCH   1   2
BRANCH   1  40
ATOM     38  C   HIS A   3      29.982  67.103  72.083  0.00  0.00    +0.241 C 
ATOM     39  O   HIS A   3      31.187  67.040  71.853  0.00  0.00    -0.273 OA
ATOM     40  N   LEU A   4      29.143  67.830  71.343  0.00  0.00    -0.297 N 
ATOM     41  H   LEU A   4      28.122  67.775  71.535  0.00  0.00    +0.150 HD
BRANCH  38  42
ATOM     42  CA  HIS A   3      29.383  66.324  73.263  0.00  0.00    +0.155 C 
BRANCH  42  45
ATOM     43  C   TYR A   2      28.015  67.856  74.591  0.00  0.00    +0.241 C 
ATOM     44  O   TYR A   2      28.999  68.313  75.152  0.00  0.00    -0.273 OA
ATOM     45  N   HIS A   3      28.092  66.867  73.709  0.00  0.00    -0.297 N 
ATOM     46  H   HIS A   3      27.214  66.465  73.323  0.00  0.00    +0.150 HD
BRANCH  43  47
ATOM     47  CA  TYR A   2      26.629  68.436  74.866  0.00  0.00    +0.153 C 
BRANCH  47  49
ATOM     48  C   LYS A   1      25.642  68.488  72.641  0.00  0.00    +0.238 C 
ATOM     49  N   TYR A   2      25.606  68.039  73.896  0.00  0.00    -0.297 N 
ATOM     50  H   TYR A   2      24.841  67.398  74.190  0.00  0.00    +0.150 HD
ATOM     51  O   LYS A   1      26.550  69.221  72.208  0.00  0.00    -0.274 OA
BRANCH  48  52
ATOM     52  CA  LYS A   1      24.540  67.994  71.700  0.00  0.00    +0.145 C 
BRANCH  52  53
ATOM     53  N   LYS A   1      24.230  66.590  71.906  0.00  0.00    -0.238 NA
ATOM     54  H   LYS A   1      23.269  66.301  72.181  0.00  0.00    +0.142 HD
ENDBRANCH  52  53
BRANCH  52  55
ATOM     55  CB  LYS A   1      23.269  68.839  71.749  0.00  0.00    +0.026 C 
BRANCH  55  56
ATOM     56  CG  LYS A   1      22.344  68.487  70.596  0.00  0.00    -0.000 C 
BRANCH  56  57
ATOM     57  CD  LYS A   1      21.217  69.481  70.441  0.00  0.00    -0.024 C 
BRANCH  57  58
ATOM     58  CE  LYS A   1      21.721  70.824  69.916  0.00  0.00    -0.086 C 
BRANCH  58  59
ATOM     59  NZ  LYS A   1      20.601  71.821  69.792  0.00  0.00    +0.380 N 
ATOM     60  HZ1 LYS A   1      20.168  71.973  70.726  0.00  0.00    -0.089 HD
ATOM     61  HZ2 LYS A   1      20.978  72.721  69.433  0.00  0.00    -0.089 HD
ATOM     62  HZ3 LYS A   1      19.885  71.456  69.132  0.00  0.00    -0.089 HD
ENDBRANCH  58  59
ENDBRANCH  57  58
ENDBRANCH  56  57
ENDBRANCH  55  56
ENDBRANCH  52  55
ENDBRANCH  48  52
ENDBRANCH  47  49
BRANCH  47  63
ATOM     63  CB  TYR A   2      26.183  68.153  76.306  0.00  0.00    +0.055 C 
BRANCH  63  64
ATOM     64  CG  TYR A   2      25.460  69.334  76.932  0.00  0.00    -0.020 A 
ATOM     65  CD2 TYR A   2      26.119  70.180  77.820  0.00  0.00    -0.001 A 
ATOM     66  CE2 TYR A   2      25.473  71.280  78.383  0.00  0.00    +0.036 A 
ATOM     67  CZ  TYR A   2      24.161  71.540  78.051  0.00  0.00    +0.134 A 
ATOM     68  CE1 TYR A   2      23.476  70.714  77.162  0.00  0.00    +0.036 A 
ATOM     69  CD1 TYR A   2      24.131  69.619  76.607  0.00  0.00    -0.001 A 
BRANCH  67  70
ATOM     70  OH  TYR A   2      23.537  72.624  78.617  0.00  0.00    -0.506 OA
ATOM     71  HH  TYR A   2      22.606  72.679  78.284  0.00  0.00    +0.292 HD
ENDBRANCH  67  70
ENDBRANCH  63  64
ENDBRANCH  47  63
ENDBRANCH  43  47
ENDBRANCH  42  45
BRANCH  42  72
ATOM     72  CB  HIS A   3      29.250  64.840  72.902  0.00  0.00    +0.076 C 
BRANCH  72  73
ATOM     73  CG  HIS A   3      29.166  63.941  74.094  0.00  0.00    +0.082 A 
ATOM     74  ND1 HIS A   3      27.994  63.731  74.786  0.00  0.00    -0.227 NA
ATOM     75  CE1 HIS A   3      28.219  62.904  75.790  0.00  0.00    +0.199 A 
ATOM     76  NE2 HIS A   3      29.495  62.571  75.774  0.00  0.00    -0.221 NA
ATOM     77  CD2 HIS A   3      30.110  63.202  74.719  0.00  0.00    +0.115 A 
ENDBRANCH  72  73
ENDBRANCH  42  72
ENDBRANCH  38  42
ENDBRANCH   1  40
BRANCH   1  78
ATOM     78  CB  LEU A   4      28.435  69.250  69.440  0.00  0.00    +0.029 C 
BRANCH  78  79
ATOM     79  CG  LEU A   4      27.487  68.213  68.802  0.00  0.00    +0.002 C 
ATOM     80  CD2 LEU A   4      26.179  68.851  68.322  0.00  0.00    +0.000 C 
ATOM     81  CD1 LEU A   4      28.166  67.455  67.654  0.00  0.00    +0.000 C 
ENDBRANCH  78  79
ENDBRANCH   1  78
TORSDOF 33
REMARK  Name = ../refined-set-2016/2za5/2za5_pocket.pdb
REMARK  222 active torsions:
REMARK  status: ('A' for Active; 'I' for Inactive)
REMARK    1  A    between atoms: _1  and  _5
REMARK    2  A    between atoms: _5  and  _6
REMARK    3  A    between atoms: _5  and  _8
REMARK    4  A    between atoms: _8  and  _9
REMARK    5  A    between atoms: _12  and  _14
REMARK    6  A    between atoms: _14  and  _15
REMARK    7  A    between atoms: _14  and  _17
REMARK    8  A    between atoms: _20  and  _22
REMARK    9  A    between atoms: _22  and  _23
REMARK   10  A    between atoms: _22  and  _25
REMARK   11  A    between atoms: _27  and  _29
REMARK   12  A    between atoms: _29  and  _30
REMARK   13  A    between atoms: _29  and  _32
REMARK   14  A    between atoms: _32  and  _33
REMARK   15  A    between atoms: _38  and  _40
REMARK   16  A    between atoms: _40  and  _41
REMARK   17  A    between atoms: _44  and  _46
REMARK   18  A    between atoms: _46  and  _47
REMARK   19  A    between atoms: _46  and  _49
REMARK   20  A    between atoms: _49  and  _50
REMARK   21  A    between atoms: _50  and  _51
REMARK   22  A    between atoms: _56  and  _58
REMARK   23  A    between atoms: _58  and  _59
REMARK   24  A    between atoms: _58  and  _61
REMARK   25  A    between atoms: _64  and  _66
REMARK   26  A    between atoms: _66  and  _67
REMARK   27  A    between atoms: _66  and  _69
REMARK   28  A    between atoms: _69  and  _70
REMARK   29  A    between atoms: _73  and  _75
REMARK   30  A    between atoms: _75  and  _76
REMARK   31  A    between atoms: _75  and  _78
REMARK   32  A    between atoms: _78  and  _79
REMARK   33  A    between atoms: _84  and  _86
REMARK   34  A    between atoms: _86  and  _87
REMARK   35  A    between atoms: _86  and  _89
REMARK   36  A    between atoms: _89  and  _90
REMARK   37  A    between atoms: _93  and  _95
REMARK   38  A    between atoms: _95  and  _96
REMARK   39  A    between atoms: _95  and  _98
REMARK   40  A    between atoms: _98  and  _99
REMARK   41  A    between atoms: _102  and  _104
REMARK   42  A    between atoms: _104  and  _105
REMARK   43  A    between atoms: _104  and  _107
REMARK   44  A    between atoms: _107  and  _108
REMARK   45  A    between atoms: _108  and  _109
REMARK   46  A    between atoms: _109  and  _110
REMARK   47  A    between atoms: _110  and  _111
REMARK   48  A    between atoms: _115  and  _117
REMARK   49  A    between atoms: _117  and  _118
REMARK   50  A    between atoms: _117  and  _120
REMARK   51  A    between atoms: _120  and  _121
REMARK   52  A    between atoms: _126  and  _127
REMARK   53  A    between atoms: _129  and  _131
REMARK   54  A    between atoms: _131  and  _132
REMARK   55  A    between atoms: _131  and  _134
REMARK   56  A    between atoms: _134  and  _135
REMARK   57  A    between atoms: _140  and  _142
REMARK   58  A    between atoms: _142  and  _143
REMARK   59  A    between atoms: _142  and  _145
REMARK   60  A    between atoms: _145  and  _146
REMARK   61  A    between atoms: _149  and  _151
REMARK   62  A    between atoms: _151  and  _152
REMARK   63  A    between atoms: _154  and  _156
REMARK   64  A    between atoms: _156  and  _157
REMARK   65  A    between atoms: _160  and  _162
REMARK   66  A    between atoms: _162  and  _163
REMARK   67  A    between atoms: _162  and  _165
REMARK   68  A    between atoms: _165  and  _166
REMARK   69  A    between atoms: _171  and  _172
REMARK   70  A    between atoms: _174  and  _176
REMARK   71  A    between atoms: _176  and  _177
REMARK   72  A    between atoms: _176  and  _179
REMARK   73  A    between atoms: _179  and  _180
REMARK   74  A    between atoms: _183  and  _185
REMARK   75  A    between atoms: _185  and  _186
REMARK   76  A    between atoms: _185  and  _188
REMARK   77  A    between atoms: _191  and  _193
REMARK   78  A    between atoms: _193  and  _194
REMARK   79  A    between atoms: _193  and  _196
REMARK   80  A    between atoms: _196  and  _197
REMARK   81  A    between atoms: _197  and  _198
REMARK   82  A    between atoms: _198  and  _199
REMARK   83  A    between atoms: _208  and  _210
REMARK   84  A    between atoms: _210  and  _211
REMARK   85  A    between atoms: _210  and  _213
REMARK   86  A    between atoms: _213  and  _214
REMARK   87  A    between atoms: _217  and  _219
REMARK   88  A    between atoms: _219  and  _220
REMARK   89  A    between atoms: _219  and  _222
REMARK   90  A    between atoms: _225  and  _227
REMARK   91  A    between atoms: _227  and  _228
REMARK   92  A    between atoms: _231  and  _233
REMARK   93  A    between atoms: _233  and  _234
REMARK   94  A    between atoms: _236  and  _238
REMARK   95  A    between atoms: _238  and  _239
REMARK   96  A    between atoms: _238  and  _241
REMARK   97  A    between atoms: _241  and  _242
REMARK   98  A    between atoms: _247  and  _249
REMARK   99  A    between atoms: _249  and  _250
REMARK  100  A    between atoms: _249  and  _252
REMARK  101  A    between atoms: _252  and  _253
REMARK  102  A    between atoms: _253  and  _254
REMARK  103  A    between atoms: _254  and  _255
REMARK  104  A    between atoms: _264  and  _266
REMARK  105  A    between atoms: _266  and  _267
REMARK  106  A    between atoms: _266  and  _269
REMARK  107  A    between atoms: _269  and  _270
REMARK  108  A    between atoms: _273  and  _275
REMARK  109  A    between atoms: _275  and  _276
REMARK  110  A    between atoms: _275  and  _278
REMARK  111  A    between atoms: _278  and  _279
REMARK  112  A    between atoms: _281  and  _283
REMARK  113  A    between atoms: _283  and  _284
REMARK  114  A    between atoms: _283  and  _286
REMARK  115  A    between atoms: _286  and  _287
REMARK  116  A    between atoms: _287  and  _390
REMARK  117  A    between atoms: _288  and  _290
REMARK  118  A    between atoms: _290  and  _291
REMARK  119  A    between atoms: _290  and  _293
REMARK  120  A    between atoms: _293  and  _294
REMARK  121  A    between atoms: _294  and  _295
REMARK  122  A    between atoms: _300  and  _302
REMARK  123  A    between atoms: _302  and  _303
REMARK  124  A    between atoms: _305  and  _307
REMARK  125  A    between atoms: _307  and  _308
REMARK  126  A    between atoms: _307  and  _310
REMARK  127  A    between atoms: _310  and  _311
REMARK  128  A    between atoms: _314  and  _316
REMARK  129  A    between atoms: _316  and  _317
REMARK  130  A    between atoms: _316  and  _319
REMARK  131  A    between atoms: _319  and  _320
REMARK  132  A    between atoms: _322  and  _324
REMARK  133  A    between atoms: _324  and  _325
REMARK  134  A    between atoms: _327  and  _329
REMARK  135  A    between atoms: _329  and  _330
REMARK  136  A    between atoms: _332  and  _334
REMARK  137  A    between atoms: _334  and  _335
REMARK  138  A    between atoms: _334  and  _337
REMARK  139  A    between atoms: _340  and  _342
REMARK  140  A    between atoms: _342  and  _343
REMARK  141  A    between atoms: _342  and  _345
REMARK  142  A    between atoms: _345  and  _346
REMARK  143  A    between atoms: _348  and  _350
REMARK  144  A    between atoms: _350  and  _351
REMARK  145  A    between atoms: _350  and  _353
REMARK  146  A    between atoms: _353  and  _354
REMARK  147  A    between atoms: _364  and  _366
REMARK  148  A    between atoms: _366  and  _367
REMARK  149  A    between atoms: _369  and  _371
REMARK  150  A    between atoms: _371  and  _372
REMARK  151  A    between atoms: _371  and  _374
REMARK  152  A    between atoms: _374  and  _375
REMARK  153  A    between atoms: _375  and  _376
REMARK  154  A    between atoms: _379  and  _381
REMARK  155  A    between atoms: _381  and  _382
REMARK  156  A    between atoms: _384  and  _386
REMARK  157  A    between atoms: _386  and  _387
REMARK  158  A    between atoms: _386  and  _389
REMARK  159  A    between atoms: _389  and  _390
REMARK  160  A    between atoms: _391  and  _393
REMARK  161  A    between atoms: _393  and  _394
REMARK  162  A    between atoms: _397  and  _399
REMARK  163  A    between atoms: _399  and  _400
REMARK  164  A    between atoms: _399  and  _402
REMARK  165  A    between atoms: _402  and  _403
REMARK  166  A    between atoms: _403  and  _404
REMARK  167  A    between atoms: _409  and  _411
REMARK  168  A    between atoms: _411  and  _412
REMARK  169  A    between atoms: _411  and  _414
REMARK  170  A    between atoms: _414  and  _415
REMARK  171  A    between atoms: _420  and  _422
REMARK  172  A    between atoms: _422  and  _423
REMARK  173  A    between atoms: _422  and  _425
REMARK  174  A    between atoms: _425  and  _426
REMARK  175  A    between atoms: _426  and  _427
REMARK  176  A    between atoms: _427  and  _428
REMARK  177  A    between atoms: _438  and  _439
REMARK  178  A    between atoms: _444  and  _446
REMARK  179  A    between atoms: _446  and  _447
REMARK  180  A    between atoms: _449  and  _451
REMARK  181  A    between atoms: _451  and  _452
REMARK  182  A    between atoms: _451  and  _454
REMARK  183  A    between atoms: _454  and  _455
REMARK  184  A    between atoms: _458  and  _460
REMARK  185  A    between atoms: _460  and  _461
REMARK  186  A    between atoms: _460  and  _463
REMARK  187  A    between atoms: _463  and  _464
REMARK  188  A    between atoms: _469  and  _470
REMARK  189  A    between atoms: _472  and  _474
REMARK  190  A    between atoms: _474  and  _475
REMARK  191  A    between atoms: _478  and  _479
REMARK  192  A    between atoms: _484  and  _486
REMARK  193  A    between atoms: _486  and  _487
REMARK  194  A    between atoms: _486  and  _489
REMARK  195  A    between atoms: _489  and  _490
REMARK  196  A    between atoms: _493  and  _495
REMARK  197  A    between atoms: _495  and  _496
REMARK  198  A    between atoms: _495  and  _498
REMARK  199  A    between atoms: _501  and  _503
REMARK  200  A    between atoms: _503  and  _504
REMARK  201  A    between atoms: _503  and  _506
REMARK  202  A    between atoms: _506  and  _507
REMARK  203  A    between atoms: _513  and  _515
REMARK  204  A    between atoms: _515  and  _516
REMARK  205  A    between atoms: _515  and  _518
REMARK  206  A    between atoms: _518  and  _519
REMARK  207  A    between atoms: _524  and  _525
REMARK  208  A    between atoms: _527  and  _529
REMARK  209  A    between atoms: _529  and  _530
REMARK  210  A    between atoms: _529  and  _532
REMARK  211  A    between atoms: _532  and  _533
REMARK  212  A    between atoms: _536  and  _538
REMARK  213  A    between atoms: _538  and  _539
REMARK  214  A    between atoms: _542  and  _544
REMARK  215  A    between atoms: _544  and  _545
REMARK  216  A    between atoms: _544  and  _547
REMARK  217  A    between atoms: _547  and  _548
REMARK  218  A    between atoms: _548  and  _549
REMARK  219  A    between atoms: _554  and  _556
REMARK  220  A    between atoms: _556  and  _557
REMARK  221  A    between atoms: _556  and  _559
REMARK  222  A    between atoms: _559  and  _560
REMARK                            x       y       z     vdW  Elec       q    Type
REMARK                         _______ _______ _______ _____ _____    ______ ____
ROOT
ATOM      1  CA  ARG A   2      26.687  60.390  79.833  0.00  0.00    +0.149 C 
ENDROOT
BRANCH   1   3
ATOM      2  C   VAL A   1      28.976  60.165  78.986  0.00  0.00    +0.238 C 
ATOM      3  N   ARG A   2      28.001  59.753  79.798  0.00  0.00    -0.297 N 
ATOM      4  H   ARG A   2      28.183  58.948  80.430  0.00  0.00    +0.150 HD
ATOM      5  O   VAL A   1      28.842  61.104  78.203  0.00  0.00    -0.274 OA
BRANCH   2   6
ATOM      6  CA  VAL A   1      30.307  59.414  79.068  0.00  0.00    +0.145 C 
BRANCH   6   7
ATOM      7  CB  VAL A   1      31.402  60.462  79.303  0.00  0.00    +0.025 C 
ATOM      8  CG2 VAL A   1      31.143  61.208  80.620  0.00  0.00    +0.002 C 
ATOM      9  CG1 VAL A   1      32.777  59.808  79.286  0.00  0.00    +0.002 C 
ENDBRANCH   6   7
BRANCH   6  10
ATOM     10  N   VAL A   1      30.569  58.685  77.839  0.00  0.00    -0.238 NA
ATOM     11  H   VAL A   1      31.157  59.137  77.110  0.00  0.00    +0.142 HD
ENDBRANCH   6  10
ENDBRANCH   2   6
ENDBRANCH   1   3
BRANCH   1  12
ATOM     12  C   ARG A   2      26.695  61.655  80.690  0.00  0.00    +0.241 C 
ATOM     13  O   ARG A   2      27.100  61.637  81.842  0.00  0.00    -0.273 OA
ATOM     14  N   ILE A   3      26.254  62.750  80.093  0.00  0.00    -0.297 N 
ATOM     15  H   ILE A   3      25.872  62.672  79.129  0.00  0.00    +0.150 HD
BRANCH  14  16
ATOM     16  CA  ILE A   3      26.280  64.050  80.723  0.00  0.00    +0.149 C 
BRANCH  16  17
ATOM     17  C   ILE A   3      24.863  64.351  81.192  0.00  0.00    +0.241 C 
ATOM     18  O   ILE A   3      24.643  64.682  82.355  0.00  0.00    -0.273 OA
ATOM     19  N   VAL A   4      23.903  64.218  80.279  0.00  0.00    -0.298 N 
ATOM     20  H   VAL A   4      24.165  63.974  79.303  0.00  0.00    +0.150 HD
BRANCH  19  21
ATOM     21  CA  VAL A   4      22.501  64.404  80.608  0.00  0.00    +0.137 C 
BRANCH  21  22
ATOM     22  CB  VAL A   4      21.665  64.810  79.371  0.00  0.00    +0.026 C 
ATOM     23  CG2 VAL A   4      20.219  65.067  79.783  0.00  0.00    +0.002 C 
ATOM     24  CG1 VAL A   4      22.259  66.036  78.695  0.00  0.00    +0.002 C 
ENDBRANCH  21  22
BRANCH  21  25
ATOM     25  C   VAL A   4      21.947  63.109  81.223  0.00  0.00    +0.227 C 
ATOM     26  O   VAL A   4      21.685  62.130  80.515  0.00  0.00    -0.286 OA
ENDBRANCH  21  25
ENDBRANCH  19  21
ENDBRANCH  16  17
BRANCH  16  27
ATOM     27  CB  ILE A   3      26.763  65.134  79.712  0.00  0.00    +0.027 C 
ATOM     28  CG2 ILE A   3      26.593  66.528  80.283  0.00  0.00    +0.002 C 
BRANCH  27  29
ATOM     29  CG1 ILE A   3      28.224  64.898  79.297  0.00  0.00    +0.002 C 
ATOM     30  CD1 ILE A   3      28.589  65.556  77.944  0.00  0.00    +0.000 C 
ENDBRANCH  27  29
ENDBRANCH  16  27
ENDBRANCH  14  16
ENDBRANCH   1  12
BRANCH   1  31
ATOM     31  CB  ARG A   2      25.613  59.435  80.344  0.00  0.00    +0.033 C 
BRANCH  31  32
ATOM     32  CG  ARG A   2      24.222  60.045  80.277  0.00  0.00    +0.045 C 
BRANCH  32  33
ATOM     33  CD  ARG A   2      23.152  59.035  80.646  0.00  0.00    +0.174 C 
BRANCH  33  34
ATOM     34  NE  ARG A   2      23.112  57.904  79.720  0.00  0.00    -0.265 N 
ATOM     35  CZ  ARG A   2      22.372  56.811  79.908  0.00  0.00    +0.342 C 
ATOM     36  NH2 ARG A   2      21.610  56.693  80.995  0.00  0.00    -0.292 N 
ATOM     37 HH21 ARG A   2      21.591  57.456  81.702  0.00  0.00    +0.255 HD
ATOM     38 HH22 ARG A   2      21.035  55.838  81.137  0.00  0.00    +0.255 HD
ATOM     39  NH1 ARG A   2      22.395  55.833  79.008  0.00  0.00    -0.292 N 
ATOM     40 HH11 ARG A   2      21.819  54.980  79.153  0.00  0.00    +0.255 HD
ATOM     41 HH12 ARG A   2      22.989  55.921  78.159  0.00  0.00    +0.255 HD
ATOM     42  HE  ARG A   2      23.697  57.955  78.862  0.00  0.00    +0.259 HD
ENDBRANCH  33  34
ENDBRANCH  32  33
ENDBRANCH  31  32
ENDBRANCH   1  31
TORSDOF 16
REMARK  Name = ../refined-set-2016/2za5/2za5_pocket.pdb
REMARK  222 active torsions:
REMARK  status: ('A' for Active; 'I' for Inactive)
REMARK    1  A    between atoms: _1  and  _5
REMARK    2  A    between atoms: _5  and  _6
REMARK    3  A    between atoms: _5  and  _8
REMARK    4  A    between atoms: _8  and  _9
REMARK    5  A    between atoms: _12  and  _14
REMARK    6  A    between atoms: _14  and  _15
REMARK    7  A    between atoms: _14  and  _17
REMARK    8  A    between atoms: _20  and  _22
REMARK    9  A    between atoms: _22  and  _23
REMARK   10  A    between atoms: _22  and  _25
REMARK   11  A    between atoms: _27  and  _29
REMARK   12  A    between atoms: _29  and  _30
REMARK   13  A    between atoms: _29  and  _32
REMARK   14  A    between atoms: _32  and  _33
REMARK   15  A    between atoms: _38  and  _40
REMARK   16  A    between atoms: _40  and  _41
REMARK   17  A    between atoms: _44  and  _46
REMARK   18  A    between atoms: _46  and  _47
REMARK   19  A    between atoms: _46  and  _49
REMARK   20  A    between atoms: _49  and  _50
REMARK   21  A    between atoms: _50  and  _51
REMARK   22  A    between atoms: _56  and  _58
REMARK   23  A    between atoms: _58  and  _59
REMARK   24  A    between atoms: _58  and  _61
REMARK   25  A    between atoms: _64  and  _66
REMARK   26  A    between atoms: _66  and  _67
REMARK   27  A    between atoms: _66  and  _69
REMARK   28  A    between atoms: _69  and  _70
REMARK   29  A    between atoms: _73  and  _75
REMARK   30  A    between atoms: _75  and  _76
REMARK   31  A    between atoms: _75  and  _78
REMARK   32  A    between atoms: _78  and  _79
REMARK   33  A    between atoms: _84  and  _86
REMARK   34  A    between atoms: _86  and  _87
REMARK   35  A    between atoms: _86  and  _89
REMARK   36  A    between atoms: _89  and  _90
REMARK   37  A    between atoms: _93  and  _95
REMARK   38  A    between atoms: _95  and  _96
REMARK   39  A    between atoms: _95  and  _98
REMARK   40  A    between atoms: _98  and  _99
REMARK   41  A    between atoms: _102  and  _104
REMARK   42  A    between atoms: _104  and  _105
REMARK   43  A    between atoms: _104  and  _107
REMARK   44  A    between atoms: _107  and  _108
REMARK   45  A    between atoms: _108  and  _109
REMARK   46  A    between atoms: _109  and  _110
REMARK   47  A    between atoms: _110  and  _111
REMARK   48  A    between atoms: _115  and  _117
REMARK   49  A    between atoms: _117  and  _118
REMARK   50  A    between atoms: _117  and  _120
REMARK   51  A    between atoms: _120  and  _121
REMARK   52  A    between atoms: _126  and  _127
REMARK   53  A    between atoms: _129  and  _131
REMARK   54  A    between atoms: _131  and  _132
REMARK   55  A    between atoms: _131  and  _134
REMARK   56  A    between atoms: _134  and  _135
REMARK   57  A    between atoms: _140  and  _142
REMARK   58  A    between atoms: _142  and  _143
REMARK   59  A    between atoms: _142  and  _145
REMARK   60  A    between atoms: _145  and  _146
REMARK   61  A    between atoms: _149  and  _151
REMARK   62  A    between atoms: _151  and  _152
REMARK   63  A    between atoms: _154  and  _156
REMARK   64  A    between atoms: _156  and  _157
REMARK   65  A    between atoms: _160  and  _162
REMARK   66  A    between atoms: _162  and  _163
REMARK   67  A    between atoms: _162  and  _165
REMARK   68  A    between atoms: _165  and  _166
REMARK   69  A    between atoms: _171  and  _172
REMARK   70  A    between atoms: _174  and  _176
REMARK   71  A    between atoms: _176  and  _177
REMARK   72  A    between atoms: _176  and  _179
REMARK   73  A    between atoms: _179  and  _180
REMARK   74  A    between atoms: _183  and  _185
REMARK   75  A    between atoms: _185  and  _186
REMARK   76  A    between atoms: _185  and  _188
REMARK   77  A    between atoms: _191  and  _193
REMARK   78  A    between atoms: _193  and  _194
REMARK   79  A    between atoms: _193  and  _196
REMARK   80  A    between atoms: _196  and  _197
REMARK   81  A    between atoms: _197  and  _198
REMARK   82  A    between atoms: _198  and  _199
REMARK   83  A    between atoms: _208  and  _210
REMARK   84  A    between atoms: _210  and  _211
REMARK   85  A    between atoms: _210  and  _213
REMARK   86  A    between atoms: _213  and  _214
REMARK   87  A    between atoms: _217  and  _219
REMARK   88  A    between atoms: _219  and  _220
REMARK   89  A    between atoms: _219  and  _222
REMARK   90  A    between atoms: _225  and  _227
REMARK   91  A    between atoms: _227  and  _228
REMARK   92  A    between atoms: _231  and  _233
REMARK   93  A    between atoms: _233  and  _234
REMARK   94  A    between atoms: _236  and  _238
REMARK   95  A    between atoms: _238  and  _239
REMARK   96  A    between atoms: _238  and  _241
REMARK   97  A    between atoms: _241  and  _242
REMARK   98  A    between atoms: _247  and  _249
REMARK   99  A    between atoms: _249  and  _250
REMARK  100  A    between atoms: _249  and  _252
REMARK  101  A    between atoms: _252  and  _253
REMARK  102  A    between atoms: _253  and  _254
REMARK  103  A    between atoms: _254  and  _255
REMARK  104  A    between atoms: _264  and  _266
REMARK  105  A    between atoms: _266  and  _267
REMARK  106  A    between atoms: _266  and  _269
REMARK  107  A    between atoms: _269  and  _270
REMARK  108  A    between atoms: _273  and  _275
REMARK  109  A    between atoms: _275  and  _276
REMARK  110  A    between atoms: _275  and  _278
REMARK  111  A    between atoms: _278  and  _279
REMARK  112  A    between atoms: _281  and  _283
REMARK  113  A    between atoms: _283  and  _284
REMARK  114  A    between atoms: _283  and  _286
REMARK  115  A    between atoms: _286  and  _287
REMARK  116  A    between atoms: _287  and  _390
REMARK  117  A    between atoms: _288  and  _290
REMARK  118  A    between atoms: _290  and  _291
REMARK  119  A    between atoms: _290  and  _293
REMARK  120  A    between atoms: _293  and  _294
REMARK  121  A    between atoms: _294  and  _295
REMARK  122  A    between atoms: _300  and  _302
REMARK  123  A    between atoms: _302  and  _303
REMARK  124  A    between atoms: _305  and  _307
REMARK  125  A    between atoms: _307  and  _308
REMARK  126  A    between atoms: _307  and  _310
REMARK  127  A    between atoms: _310  and  _311
REMARK  128  A    between atoms: _314  and  _316
REMARK  129  A    between atoms: _316  and  _317
REMARK  130  A    between atoms: _316  and  _319
REMARK  131  A    between atoms: _319  and  _320
REMARK  132  A    between atoms: _322  and  _324
REMARK  133  A    between atoms: _324  and  _325
REMARK  134  A    between atoms: _327  and  _329
REMARK  135  A    between atoms: _329  and  _330
REMARK  136  A    between atoms: _332  and  _334
REMARK  137  A    between atoms: _334  and  _335
REMARK  138  A    between atoms: _334  and  _337
REMARK  139  A    between atoms: _340  and  _342
REMARK  140  A    between atoms: _342  and  _343
REMARK  141  A    between atoms: _342  and  _345
REMARK  142  A    between atoms: _345  and  _346
REMARK  143  A    between atoms: _348  and  _350
REMARK  144  A    between atoms: _350  and  _351
REMARK  145  A    between atoms: _350  and  _353
REMARK  146  A    between atoms: _353  and  _354
REMARK  147  A    between atoms: _364  and  _366
REMARK  148  A    between atoms: _366  and  _367
REMARK  149  A    between atoms: _369  and  _371
REMARK  150  A    between atoms: _371  and  _372
REMARK  151  A    between atoms: _371  and  _374
REMARK  152  A    between atoms: _374  and  _375
REMARK  153  A    between atoms: _375  and  _376
REMARK  154  A    between atoms: _379  and  _381
REMARK  155  A    between atoms: _381  and  _382
REMARK  156  A    between atoms: _384  and  _386
REMARK  157  A    between atoms: _386  and  _387
REMARK  158  A    between atoms: _386  and  _389
REMARK  159  A    between atoms: _389  and  _390
REMARK  160  A    between atoms: _391  and  _393
REMARK  161  A    between atoms: _393  and  _394
REMARK  162  A    between atoms: _397  and  _399
REMARK  163  A    between atoms: _399  and  _400
REMARK  164  A    between atoms: _399  and  _402
REMARK  165  A    between atoms: _402  and  _403
REMARK  166  A    between atoms: _403  and  _404
REMARK  167  A    between atoms: _409  and  _411
REMARK  168  A    between atoms: _411  and  _412
REMARK  169  A    between atoms: _411  and  _414
REMARK  170  A    between atoms: _414  and  _415
REMARK  171  A    between atoms: _420  and  _422
REMARK  172  A    between atoms: _422  and  _423
REMARK  173  A    between atoms: _422  and  _425
REMARK  174  A    between atoms: _425  and  _426
REMARK  175  A    between atoms: _426  and  _427
REMARK  176  A    between atoms: _427  and  _428
REMARK  177  A    between atoms: _438  and  _439
REMARK  178  A    between atoms: _444  and  _446
REMARK  179  A    between atoms: _446  and  _447
REMARK  180  A    between atoms: _449  and  _451
REMARK  181  A    between atoms: _451  and  _452
REMARK  182  A    between atoms: _451  and  _454
REMARK  183  A    between atoms: _454  and  _455
REMARK  184  A    between atoms: _458  and  _460
REMARK  185  A    between atoms: _460  and  _461
REMARK  186  A    between atoms: _460  and  _463
REMARK  187  A    between atoms: _463  and  _464
REMARK  188  A    between atoms: _469  and  _470
REMARK  189  A    between atoms: _472  and  _474
REMARK  190  A    between atoms: _474  and  _475
REMARK  191  A    between atoms: _478  and  _479
REMARK  192  A    between atoms: _484  and  _486
REMARK  193  A    between atoms: _486  and  _487
REMARK  194  A    between atoms: _486  and  _489
REMARK  195  A    between atoms: _489  and  _490
REMARK  196  A    between atoms: _493  and  _495
REMARK  197  A    between atoms: _495  and  _496
REMARK  198  A    between atoms: _495  and  _498
REMARK  199  A    between atoms: _501  and  _503
REMARK  200  A    between atoms: _503  and  _504
REMARK  201  A    between atoms: _503  and  _506
REMARK  202  A    between atoms: _506  and  _507
REMARK  203  A    between atoms: _513  and  _515
REMARK  204  A    between atoms: _515  and  _516
REMARK  205  A    between atoms: _515  and  _518
REMARK  206  A    between atoms: _518  and  _519
REMARK  207  A    between atoms: _524  and  _525
REMARK  208  A    between atoms: _527  and  _529
REMARK  209  A    between atoms: _529  and  _530
REMARK  210  A    between atoms: _529  and  _532
REMARK  211  A    between atoms: _532  and  _533
REMARK  212  A    between atoms: _536  and  _538
REMARK  213  A    between atoms: _538  and  _539
REMARK  214  A    between atoms: _542  and  _544
REMARK  215  A    between atoms: _544  and  _545
REMARK  216  A    between atoms: _544  and  _547
REMARK  217  A    between atoms: _547  and  _548
REMARK  218  A    between atoms: _548  and  _549
REMARK  219  A    between atoms: _554  and  _556
REMARK  220  A    between atoms: _556  and  _557
REMARK  221  A    between atoms: _556  and  _559
REMARK  222  A    between atoms: _559  and  _560
REMARK                            x       y       z     vdW  Elec       q    Type
REMARK                         _______ _______ _______ _____ _____    ______ ____
ROOT
ATOM      1  C   GLY A   2      16.292  75.405  73.885  0.00  0.00    +0.243 C 
ATOM      2  O   GLY A   2      16.634  74.307  73.451  0.00  0.00    -0.273 OA
ATOM      3  N   ASN A   3      16.566  76.551  73.263  0.00  0.00    -0.298 N 
ATOM      4  H   ASN A   3      16.147  77.431  73.627  0.00  0.00    +0.150 HD
ENDROOT
BRANCH   1   5
ATOM      5  CA  GLY A   2      15.483  75.507  75.160  0.00  0.00    +0.176 C 
BRANCH   5   8
ATOM      6  C   ALA A   1      15.343  73.541  76.600  0.00  0.00    +0.238 C 
ATOM      7  O   ALA A   1      16.288  73.919  77.284  0.00  0.00    -0.274 OA
ATOM      8  N   GLY A   2      14.906  74.227  75.542  0.00  0.00    -0.296 N 
ATOM      9  H   GLY A   2      14.129  73.835  74.973  0.00  0.00    +0.150 HD
BRANCH   6  10
ATOM     10  CA  ALA A   1      14.613  72.238  76.950  0.00  0.00    +0.145 C 
ATOM     11  CB  ALA A   1      13.398  72.532  77.827  0.00  0.00    +0.028 C 
BRANCH  10  12
ATOM     12  N   ALA A   1      15.514  71.315  77.635  0.00  0.00    -0.238 NA
ATOM     13  H   ALA A   1      16.314  71.714  78.166  0.00  0.00    +0.142 HD
ENDBRANCH  10  12
ENDBRANCH   6  10
ENDBRANCH   5   8
ENDBRANCH   1   5
BRANCH   3  14
ATOM     14  CA  ASN A   3      17.428  76.617  72.096  0.00  0.00    +0.146 C 
BRANCH  14  15
ATOM     15  C   ASN A   3      18.256  77.889  72.193  0.00  0.00    +0.227 C 
ATOM     16  O   ASN A   3      18.353  78.477  73.273  0.00  0.00    -0.286 OA
ENDBRANCH  14  15
BRANCH  14  17
ATOM     17  CB  ASN A   3      16.613  76.562  70.792  0.00  0.00    +0.112 C 
BRANCH  17  18
ATOM     18  CG  ASN A   3      15.541  77.649  70.712  0.00  0.00    +0.222 C 
ATOM     19  OD1 ASN A   3      15.729  78.775  71.191  0.00  0.00    -0.275 OA
ATOM     20  ND2 ASN A   3      14.411  77.314  70.092  0.00  0.00    -0.329 N 
ATOM     21 HD21 ASN A   3      13.645  78.010  69.996  0.00  0.00    +0.145 HD
ATOM     22 HD22 ASN A   3      14.295  76.356  69.704  0.00  0.00    +0.145 HD
ENDBRANCH  17  18
ENDBRANCH  14  17
ENDBRANCH   3  14
TORSDOF 8
REMARK  Name = ../refined-set-2016/2za5/2za5_pocket.pdb
REMARK  222 active torsions:
REMARK  status: ('A' for Active; 'I' for Inactive)
REMARK    1  A    between atoms: _1  and  _5
REMARK    2  A    between atoms: _5  and  _6
REMARK    3  A    between atoms: _5  and  _8
REMARK    4  A    between atoms: _8  and  _9
REMARK    5  A    between atoms: _12  and  _14
REMARK    6  A    between atoms: _14  and  _15
REMARK    7  A    between atoms: _14  and  _17
REMARK    8  A    between atoms: _20  and  _22
REMARK    9  A    between atoms: _22  and  _23
REMARK   10  A    between atoms: _22  and  _25
REMARK   11  A    between atoms: _27  and  _29
REMARK   12  A    between atoms: _29  and  _30
REMARK   13  A    between atoms: _29  and  _32
REMARK   14  A    between atoms: _32  and  _33
REMARK   15  A    between atoms: _38  and  _40
REMARK   16  A    between atoms: _40  and  _41
REMARK   17  A    between atoms: _44  and  _46
REMARK   18  A    between atoms: _46  and  _47
REMARK   19  A    between atoms: _46  and  _49
REMARK   20  A    between atoms: _49  and  _50
REMARK   21  A    between atoms: _50  and  _51
REMARK   22  A    between atoms: _56  and  _58
REMARK   23  A    between atoms: _58  and  _59
REMARK   24  A    between atoms: _58  and  _61
REMARK   25  A    between atoms: _64  and  _66
REMARK   26  A    between atoms: _66  and  _67
REMARK   27  A    between atoms: _66  and  _69
REMARK   28  A    between atoms: _69  and  _70
REMARK   29  A    between atoms: _73  and  _75
REMARK   30  A    between atoms: _75  and  _76
REMARK   31  A    between atoms: _75  and  _78
REMARK   32  A    between atoms: _78  and  _79
REMARK   33  A    between atoms: _84  and  _86
REMARK   34  A    between atoms: _86  and  _87
REMARK   35  A    between atoms: _86  and  _89
REMARK   36  A    between atoms: _89  and  _90
REMARK   37  A    between atoms: _93  and  _95
REMARK   38  A    between atoms: _95  and  _96
REMARK   39  A    between atoms: _95  and  _98
REMARK   40  A    between atoms: _98  and  _99
REMARK   41  A    between atoms: _102  and  _104
REMARK   42  A    between atoms: _104  and  _105
REMARK   43  A    between atoms: _104  and  _107
REMARK   44  A    between atoms: _107  and  _108
REMARK   45  A    between atoms: _108  and  _109
REMARK   46  A    between atoms: _109  and  _110
REMARK   47  A    between atoms: _110  and  _111
REMARK   48  A    between atoms: _115  and  _117
REMARK   49  A    between atoms: _117  and  _118
REMARK   50  A    between atoms: _117  and  _120
REMARK   51  A    between atoms: _120  and  _121
REMARK   52  A    between atoms: _126  and  _127
REMARK   53  A    between atoms: _129  and  _131
REMARK   54  A    between atoms: _131  and  _132
REMARK   55  A    between atoms: _131  and  _134
REMARK   56  A    between atoms: _134  and  _135
REMARK   57  A    between atoms: _140  and  _142
REMARK   58  A    between atoms: _142  and  _143
REMARK   59  A    between atoms: _142  and  _145
REMARK   60  A    between atoms: _145  and  _146
REMARK   61  A    between atoms: _149  and  _151
REMARK   62  A    between atoms: _151  and  _152
REMARK   63  A    between atoms: _154  and  _156
REMARK   64  A    between atoms: _156  and  _157
REMARK   65  A    between atoms: _160  and  _162
REMARK   66  A    between atoms: _162  and  _163
REMARK   67  A    between atoms: _162  and  _165
REMARK   68  A    between atoms: _165  and  _166
REMARK   69  A    between atoms: _171  and  _172
REMARK   70  A    between atoms: _174  and  _176
REMARK   71  A    between atoms: _176  and  _177
REMARK   72  A    between atoms: _176  and  _179
REMARK   73  A    between atoms: _179  and  _180
REMARK   74  A    between atoms: _183  and  _185
REMARK   75  A    between atoms: _185  and  _186
REMARK   76  A    between atoms: _185  and  _188
REMARK   77  A    between atoms: _191  and  _193
REMARK   78  A    between atoms: _193  and  _194
REMARK   79  A    between atoms: _193  and  _196
REMARK   80  A    between atoms: _196  and  _197
REMARK   81  A    between atoms: _197  and  _198
REMARK   82  A    between atoms: _198  and  _199
REMARK   83  A    between atoms: _208  and  _210
REMARK   84  A    between atoms: _210  and  _211
REMARK   85  A    between atoms: _210  and  _213
REMARK   86  A    between atoms: _213  and  _214
REMARK   87  A    between atoms: _217  and  _219
REMARK   88  A    between atoms: _219  and  _220
REMARK   89  A    between atoms: _219  and  _222
REMARK   90  A    between atoms: _225  and  _227
REMARK   91  A    between atoms: _227  and  _228
REMARK   92  A    between atoms: _231  and  _233
REMARK   93  A    between atoms: _233  and  _234
REMARK   94  A    between atoms: _236  and  _238
REMARK   95  A    between atoms: _238  and  _239
REMARK   96  A    between atoms: _238  and  _241
REMARK   97  A    between atoms: _241  and  _242
REMARK   98  A    between atoms: _247  and  _249
REMARK   99  A    between atoms: _249  and  _250
REMARK  100  A    between atoms: _249  and  _252
REMARK  101  A    between atoms: _252  and  _253
REMARK  102  A    between atoms: _253  and  _254
REMARK  103  A    between atoms: _254  and  _255
REMARK  104  A    between atoms: _264  and  _266
REMARK  105  A    between atoms: _266  and  _267
REMARK  106  A    between atoms: _266  and  _269
REMARK  107  A    between atoms: _269  and  _270
REMARK  108  A    between atoms: _273  and  _275
REMARK  109  A    between atoms: _275  and  _276
REMARK  110  A    between atoms: _275  and  _278
REMARK  111  A    between atoms: _278  and  _279
REMARK  112  A    between atoms: _281  and  _283
REMARK  113  A    between atoms: _283  and  _284
REMARK  114  A    between atoms: _283  and  _286
REMARK  115  A    between atoms: _286  and  _287
REMARK  116  A    between atoms: _287  and  _390
REMARK  117  A    between atoms: _288  and  _290
REMARK  118  A    between atoms: _290  and  _291
REMARK  119  A    between atoms: _290  and  _293
REMARK  120  A    between atoms: _293  and  _294
REMARK  121  A    between atoms: _294  and  _295
REMARK  122  A    between atoms: _300  and  _302
REMARK  123  A    between atoms: _302  and  _303
REMARK  124  A    between atoms: _305  and  _307
REMARK  125  A    between atoms: _307  and  _308
REMARK  126  A    between atoms: _307  and  _310
REMARK  127  A    between atoms: _310  and  _311
REMARK  128  A    between atoms: _314  and  _316
REMARK  129  A    between atoms: _316  and  _317
REMARK  130  A    between atoms: _316  and  _319
REMARK  131  A    between atoms: _319  and  _320
REMARK  132  A    between atoms: _322  and  _324
REMARK  133  A    between atoms: _324  and  _325
REMARK  134  A    between atoms: _327  and  _329
REMARK  135  A    between atoms: _329  and  _330
REMARK  136  A    between atoms: _332  and  _334
REMARK  137  A    between atoms: _334  and  _335
REMARK  138  A    between atoms: _334  and  _337
REMARK  139  A    between atoms: _340  and  _342
REMARK  140  A    between atoms: _342  and  _343
REMARK  141  A    between atoms: _342  and  _345
REMARK  142  A    between atoms: _345  and  _346
REMARK  143  A    between atoms: _348  and  _350
REMARK  144  A    between atoms: _350  and  _351
REMARK  145  A    between atoms: _350  and  _353
REMARK  146  A    between atoms: _353  and  _354
REMARK  147  A    between atoms: _364  and  _366
REMARK  148  A    between atoms: _366  and  _367
REMARK  149  A    between atoms: _369  and  _371
REMARK  150  A    between atoms: _371  and  _372
REMARK  151  A    between atoms: _371  and  _374
REMARK  152  A    between atoms: _374  and  _375
REMARK  153  A    between atoms: _375  and  _376
REMARK  154  A    between atoms: _379  and  _381
REMARK  155  A    between atoms: _381  and  _382
REMARK  156  A    between atoms: _384  and  _386
REMARK  157  A    between atoms: _386  and  _387
REMARK  158  A    between atoms: _386  and  _389
REMARK  159  A    between atoms: _389  and  _390
REMARK  160  A    between atoms: _391  and  _393
REMARK  161  A    between atoms: _393  and  _394
REMARK  162  A    between atoms: _397  and  _399
REMARK  163  A    between atoms: _399  and  _400
REMARK  164  A    between atoms: _399  and  _402
REMARK  165  A    between atoms: _402  and  _403
REMARK  166  A    between atoms: _403  and  _404
REMARK  167  A    between atoms: _409  and  _411
REMARK  168  A    between atoms: _411  and  _412
REMARK  169  A    between atoms: _411  and  _414
REMARK  170  A    between atoms: _414  and  _415
REMARK  171  A    between atoms: _420  and  _422
REMARK  172  A    between atoms: _422  and  _423
REMARK  173  A    between atoms: _422  and  _425
REMARK  174  A    between atoms: _425  and  _426
REMARK  175  A    between atoms: _426  and  _427
REMARK  176  A    between atoms: _427  and  _428
REMARK  177  A    between atoms: _438  and  _439
REMARK  178  A    between atoms: _444  and  _446
REMARK  179  A    between atoms: _446  and  _447
REMARK  180  A    between atoms: _449  and  _451
REMARK  181  A    between atoms: _451  and  _452
REMARK  182  A    between atoms: _451  and  _454
REMARK  183  A    between atoms: _454  and  _455
REMARK  184  A    between atoms: _458  and  _460
REMARK  185  A    between atoms: _460  and  _461
REMARK  186  A    between atoms: _460  and  _463
REMARK  187  A    between atoms: _463  and  _464
REMARK  188  A    between atoms: _469  and  _470
REMARK  189  A    between atoms: _472  and  _474
REMARK  190  A    between atoms: _474  and  _475
REMARK  191  A    between atoms: _478  and  _479
REMARK  192  A    between atoms: _484  and  _486
REMARK  193  A    between atoms: _486  and  _487
REMARK  194  A    between atoms: _486  and  _489
REMARK  195  A    between atoms: _489  and  _490
REMARK  196  A    between atoms: _493  and  _495
REMARK  197  A    between atoms: _495  and  _496
REMARK  198  A    between atoms: _495  and  _498
REMARK  199  A    between atoms: _501  and  _503
REMARK  200  A    between atoms: _503  and  _504
REMARK  201  A    between atoms: _503  and  _506
REMARK  202  A    between atoms: _506  and  _507
REMARK  203  A    between atoms: _513  and  _515
REMARK  204  A    between atoms: _515  and  _516
REMARK  205  A    between atoms: _515  and  _518
REMARK  206  A    between atoms: _518  and  _519
REMARK  207  A    between atoms: _524  and  _525
REMARK  208  A    between atoms: _527  and  _529
REMARK  209  A    between atoms: _529  and  _530
REMARK  210  A    between atoms: _529  and  _532
REMARK  211  A    between atoms: _532  and  _533
REMARK  212  A    between atoms: _536  and  _538
REMARK  213  A    between atoms: _538  and  _539
REMARK  214  A    between atoms: _542  and  _544
REMARK  215  A    between atoms: _544  and  _545
REMARK  216  A    between atoms: _544  and  _547
REMARK  217  A    between atoms: _547  and  _548
REMARK  218  A    between atoms: _548  and  _549
REMARK  219  A    between atoms: _554  and  _556
REMARK  220  A    between atoms: _556  and  _557
REMARK  221  A    between atoms: _556  and  _559
REMARK  222  A    between atoms: _559  and  _560
REMARK                            x       y       z     vdW  Elec       q    Type
REMARK                         _______ _______ _______ _____ _____    ______ ____
ROOT
ATOM      1  CA  GLY A   4      19.307  81.655  83.025  0.00  0.00    +0.160 C 
ENDROOT
BRANCH   1   3
ATOM      2  C   TRP A   3      17.804  80.402  81.604  0.00  0.00    +0.243 C 
ATOM      3  N   GLY A   4      17.994  81.099  82.721  0.00  0.00    -0.296 N 
ATOM      4  H   GLY A   4      17.203  81.248  83.380  0.00  0.00    +0.150 HD
ATOM      5  O   TRP A   3      18.720  80.135  80.805  0.00  0.00    -0.273 OA
BRANCH   2   6
ATOM      6  CA  TRP A   3      16.396  79.905  81.348  0.00  0.00    +0.178 C 
BRANCH   6   8
ATOM      7  C   SER A   2      16.002  80.075  78.942  0.00  0.00    +0.241 C 
ATOM      8  N   TRP A   3      16.377  79.362  79.997  0.00  0.00    -0.295 N 
ATOM      9  H   TRP A   3      16.669  78.374  79.853  0.00  0.00    +0.150 HD
ATOM     10  O   SER A   2      15.492  81.195  79.029  0.00  0.00    -0.273 OA
BRANCH   7  11
ATOM     11  CA  SER A   2      16.228  79.423  77.580  0.00  0.00    +0.160 C 
BRANCH  11  13
ATOM     12  C   VAL A   1      15.405  79.745  75.316  0.00  0.00    +0.238 C 
ATOM     13  N   SER A   2      15.569  80.212  76.545  0.00  0.00    -0.297 N 
ATOM     14  H   SER A   2      15.220  81.164  76.777  0.00  0.00    +0.150 HD
ATOM     15  O   VAL A   1      15.728  78.614  74.981  0.00  0.00    -0.274 OA
BRANCH  12  16
ATOM     16  CA  VAL A   1      14.780  80.690  74.316  0.00  0.00    +0.145 C 
BRANCH  16  17
ATOM     17  N   VAL A   1      15.669  80.830  73.179  0.00  0.00    -0.238 NA
ATOM     18  H   VAL A   1      16.145  79.989  72.794  0.00  0.00    +0.142 HD
ENDBRANCH  16  17
BRANCH  16  19
ATOM     19  CB  VAL A   1      13.428  80.147  73.851  0.00  0.00    +0.030 C 
BRANCH  19  20
ATOM     20  CG  VAL A   1      13.032  80.656  72.462  0.00  0.00    +0.045 C 
BRANCH  20  21
ATOM     21  CD  VAL A   1      11.708  80.083  71.993  0.00  0.00    +0.174 C 
BRANCH  21  22
ATOM     22  NE  VAL A   1      11.027  81.008  71.088  0.00  0.00    -0.265 N 
ATOM     23  CZ  VAL A   1       9.708  81.204  71.070  0.00  0.00    +0.342 C 
ATOM     24  NH2 VAL A   1       8.923  80.541  71.917  0.00  0.00    -0.292 N 
ATOM     25 HH21 VAL A   1       9.338  79.869  72.594  0.00  0.00    +0.255 HD
ATOM     26 HH22 VAL A   1       7.895  80.695  71.902  0.00  0.00    +0.255 HD
ATOM     27  NH1 VAL A   1       9.168  82.070  70.215  0.00  0.00    -0.292 N 
ATOM     28 HH11 VAL A   1       8.139  82.218  70.206  0.00  0.00    +0.255 HD
ATOM     29 HH12 VAL A   1       9.775  82.598  69.556  0.00  0.00    +0.255 HD
ATOM     30  HE  VAL A   1      11.608  81.548  70.415  0.00  0.00    +0.259 HD
ENDBRANCH  21  22
ENDBRANCH  20  21
ENDBRANCH  19  20
ENDBRANCH  16  19
ENDBRANCH  12  16
ENDBRANCH  11  13
BRANCH  11  31
ATOM     31  CB  SER A   2      17.731  79.358  77.293  0.00  0.00    +0.143 C 
BRANCH  31  32
ATOM     32  CG  SER A   2      18.438  78.228  78.036  0.00  0.00    +0.367 C 
ATOM     33  OD2 SER A   2      17.782  77.478  78.799  0.00  0.00    -0.246 OA
ATOM     34  OD1 SER A   2      19.672  78.088  77.840  0.00  0.00    -0.246 OA
ENDBRANCH  31  32
ENDBRANCH  11  31
ENDBRANCH   7  11
ENDBRANCH   6   8
BRANCH   6  35
ATOM     35  CB  TRP A   3      16.067  78.804  82.349  0.00  0.00    +0.166 C 
BRANCH  35  36
ATOM     36  O   TRP A   3      16.992  77.733  82.205  0.00  0.00    -0.380 OA
ATOM     37  H   TRP A   3      16.774  77.021  82.857  0.00  0.00    +0.211 HD
ENDBRANCH  35  36
ENDBRANCH   6  35
ENDBRANCH   2   6
ENDBRANCH   1   3
BRANCH   1  38
ATOM     38  C   GLY A   4      19.595  81.840  84.531  0.00  0.00    +0.242 C 
ATOM     39  O   GLY A   4      18.748  81.577  85.400  0.00  0.00    -0.273 OA
ATOM     40  N   GLU A   5      20.813  82.268  84.834  0.00  0.00    -0.297 N 
ATOM     41  H   GLU A   5      21.506  82.406  84.071  0.00  0.00    +0.150 HD
BRANCH  40  42
ATOM     42  CA  GLU A   5      21.206  82.550  86.207  0.00  0.00    +0.149 C 
BRANCH  42  43
ATOM     43  C   GLU A   5      20.162  83.444  86.879  0.00  0.00    +0.241 C 
ATOM     44  N   GLY A   6      19.692  83.019  88.043  0.00  0.00    -0.295 N 
ATOM     45  H   GLY A   6      20.115  82.182  88.492  0.00  0.00    +0.150 HD
ATOM     46  O   GLU A   5      19.775  84.490  86.349  0.00  0.00    -0.273 OA
BRANCH  44  47
ATOM     47  CA  GLY A   6      18.596  83.705  88.699  0.00  0.00    +0.176 C 
BRANCH  47  48
ATOM     48  C   GLY A   6      17.263  83.018  88.465  0.00  0.00    +0.243 C 
ATOM     49  O   GLY A   6      16.331  83.190  89.251  0.00  0.00    -0.273 OA
ATOM     50  N   CYS A   7      17.176  82.222  87.401  0.00  0.00    -0.296 N 
ATOM     51  H   CYS A   7      17.980  82.159  86.745  0.00  0.00    +0.150 HD
BRANCH  50  52
ATOM     52  CA  CYS A   7      15.970  81.434  87.137  0.00  0.00    +0.160 C 
BRANCH  52  53
ATOM     53  C   CYS A   7      16.025  80.076  87.845  0.00  0.00    +0.241 C 
ATOM     54  N   ALA A   8      17.230  79.715  88.300  0.00  0.00    -0.295 N 
ATOM     55  H   ALA A   8      18.027  80.367  88.154  0.00  0.00    +0.150 HD
ATOM     56  O   CYS A   7      15.002  79.380  87.960  0.00  0.00    -0.273 OA
BRANCH  54  57
ATOM     57  CA  ALA A   8      17.485  78.451  88.992  0.00  0.00    +0.178 C 
BRANCH  57  58
ATOM     58  C   ALA A   8      16.443  78.183  90.060  0.00  0.00    +0.243 C 
ATOM     59  O   ALA A   8      16.079  79.089  90.816  0.00  0.00    -0.273 OA
ATOM     60  N   GLN A   9      15.970  76.939  90.128  0.00  0.00    -0.295 N 
ATOM     61  H   GLN A   9      16.308  76.230  89.446  0.00  0.00    +0.150 HD
BRANCH  60  62
ATOM     62  CA  GLN A   9      14.991  76.546  91.134  0.00  0.00    +0.176 C 
BRANCH  62  63
ATOM     63  C   GLN A   9      13.552  76.720  90.679  0.00  0.00    +0.243 C 
ATOM     64  O   GLN A   9      12.632  76.122  91.241  0.00  0.00    -0.273 OA
ATOM     65  N   GLY A  10      13.360  77.531  89.646  0.00  0.00    -0.296 N 
ATOM     66  H   GLY A  10      14.186  77.961  89.183  0.00  0.00    +0.150 HD
BRANCH  65  67
ATOM     67  CA  GLY A  10      12.037  77.837  89.142  0.00  0.00    +0.163 C 
BRANCH  67  68
ATOM     68  C   GLY A  10      11.441  76.737  88.286  0.00  0.00    +0.229 C 
ATOM     69  O   GLY A  10      12.116  75.758  87.944  0.00  0.00    -0.286 OA
ENDBRANCH  67  68
ENDBRANCH  65  67
ENDBRANCH  62  63
ENDBRANCH  60  62
ENDBRANCH  57  58
BRANCH  57  70
ATOM     70  CB  ALA A   8      18.872  78.477  89.645  0.00  0.00    +0.166 C 
BRANCH  70  71
ATOM     71  O   ALA A   8      19.873  78.632  88.658  0.00  0.00    -0.380 OA
ATOM     72  H   ALA A   8      20.763  78.647  89.092  0.00  0.00    +0.211 HD
ENDBRANCH  70  71
ENDBRANCH  57  70
ENDBRANCH  54  57
ENDBRANCH  52  53
BRANCH  52  73
ATOM     73  CB  CYS A   7      15.777  81.217  85.635  0.00  0.00    +0.143 C 
BRANCH  73  74
ATOM     74  CG  CYS A   7      15.387  82.485  84.910  0.00  0.00    +0.367 C 
ATOM     75  OD2 CYS A   7      14.595  83.269  85.473  0.00  0.00    -0.246 OA
ATOM     76  OD1 CYS A   7      15.861  82.683  83.778  0.00  0.00    -0.246 OA
ENDBRANCH  73  74
ENDBRANCH  52  73
ENDBRANCH  50  52
ENDBRANCH  47  48
ENDBRANCH  44  47
ENDBRANCH  42  43
BRANCH  42  77
ATOM     77  CB  GLU A   5      22.586  83.202  86.233  0.00  0.00    +0.039 C 
BRANCH  77  78
ATOM     78  CG  GLU A   5      23.106  83.532  87.615  0.00  0.00    +0.087 C 
BRANCH  78  79
ATOM     79  CD  GLU A   5      24.530  84.076  87.572  0.00  0.00    +0.219 C 
ATOM     80  NE2 GLU A   5      24.700  85.343  87.946  0.00  0.00    -0.329 N 
ATOM     81 HE21 GLU A   5      23.884  85.907  88.259  0.00  0.00    +0.145 HD
ATOM     82 HE22 GLU A   5      25.649  85.768  87.925  0.00  0.00    +0.145 HD
ATOM     83  OE1 GLU A   5      25.464  83.361  87.192  0.00  0.00    -0.275 OA
ENDBRANCH  78  79
ENDBRANCH  77  78
ENDBRANCH  42  77
ENDBRANCH  40  42
ENDBRANCH   1  38
BRANCH   1  84
ATOM     84  CB  GLY A   4      19.510  82.968  82.239  0.00  0.00    +0.098 C 
BRANCH  84  85
ATOM     85  SG  GLY A   4      21.256  83.429  81.956  0.00  0.00    -0.080 S 
BRANCH  85  86
ATOM     86  SG  CYS A   7      22.226  81.932  80.953  0.00  0.00    -0.080 S 
BRANCH  86  87
ATOM     87  CB  CYS A   7      21.791  81.870  79.182  0.00  0.00    +0.098 C 
BRANCH  87  88
ATOM     88  CA  CYS A   7      22.310  80.601  78.486  0.00  0.00    +0.160 C 
BRANCH  88  89
ATOM     89  N   CYS A   7      23.721  80.424  78.776  0.00  0.00    -0.296 N 
ATOM     90  C   GLY A   6      24.172  79.374  79.436  0.00  0.00    +0.243 C 
ATOM     91  O   GLY A   6      23.437  78.426  79.770  0.00  0.00    -0.273 OA
ATOM     92  H   CYS A   7      24.397  81.146  78.454  0.00  0.00    +0.150 HD
BRANCH  90  93
ATOM     93  CA  GLY A   6      25.665  79.415  79.751  0.00  0.00    +0.176 C 
BRANCH  93  94
ATOM     94  N   GLY A   6      26.212  78.110  80.056  0.00  0.00    -0.295 N 
ATOM     95  H   GLY A   6      26.768  77.977  80.924  0.00  0.00    +0.150 HD
ATOM     96  C   GLU A   5      26.012  77.080  79.240  0.00  0.00    +0.241 C 
ATOM     97  O   GLU A   5      25.458  77.185  78.135  0.00  0.00    -0.273 OA
BRANCH  96  98
ATOM     98  CA  GLU A   5      26.504  75.732  79.745  0.00  0.00    +0.149 C 
BRANCH  98  99
ATOM     99  N   GLU A   5      25.370  74.910  80.074  0.00  0.00    -0.297 N 
ATOM    100  C   GLY A   4      24.887  74.932  81.302  0.00  0.00    +0.243 C 
ATOM    101  O   GLY A   4      25.443  75.519  82.236  0.00  0.00    -0.273 OA
ATOM    102  H   GLU A   5      24.934  74.303  79.350  0.00  0.00    +0.150 HD
BRANCH 100 103
ATOM    103  CA  GLY A   4      23.608  74.175  81.540  0.00  0.00    +0.176 C 
BRANCH 103 104
ATOM    104  N   GLY A   4      23.403  74.206  82.976  0.00  0.00    -0.295 N 
ATOM    105  H   GLY A   4      24.220  74.353  83.603  0.00  0.00    +0.150 HD
ATOM    106  C   TRP A   3      22.203  74.052  83.505  0.00  0.00    +0.241 C 
ATOM    107  O   TRP A   3      21.203  73.877  82.834  0.00  0.00    -0.273 OA
BRANCH 106 108
ATOM    108  CA  TRP A   3      22.143  74.103  85.015  0.00  0.00    +0.153 C 
BRANCH 108 109
ATOM    109  N   TRP A   3      20.861  73.618  85.514  0.00  0.00    -0.297 N 
ATOM    110  C   SER A   2      20.492  73.904  86.758  0.00  0.00    +0.243 C 
ATOM    111  O   SER A   2      21.230  74.515  87.510  0.00  0.00    -0.273 OA
ATOM    112  H   TRP A   3      20.240  73.052  84.900  0.00  0.00    +0.150 HD
BRANCH 110 113
ATOM    113  CA  SER A   2      19.114  73.411  87.231  0.00  0.00    +0.178 C 
BRANCH 113 114
ATOM    114  N   SER A   2      17.942  73.923  86.500  0.00  0.00    -0.295 N 
ATOM    115  C   VAL A   1      16.976  74.551  87.170  0.00  0.00    +0.238 C 
ATOM    116  O   VAL A   1      17.084  74.824  88.363  0.00  0.00    -0.274 OA
ATOM    117  H   SER A   2      17.869  73.796  85.470  0.00  0.00    +0.150 HD
BRANCH 115 118
ATOM    118  CA  VAL A   1      15.712  74.940  86.419  0.00  0.00    +0.145 C 
BRANCH 118 119
ATOM    119  CB  VAL A   1      15.630  76.496  86.439  0.00  0.00    +0.025 C 
ATOM    120  CG2 VAL A   1      16.935  77.124  85.915  0.00  0.00    +0.002 C 
ATOM    121  CG1 VAL A   1      14.442  76.995  85.632  0.00  0.00    +0.002 C 
ENDBRANCH 118 119
BRANCH 118 122
ATOM    122  N   VAL A   1      14.542  74.324  87.068  0.00  0.00    -0.238 NA
ATOM    123  H   VAL A   1      13.737  74.926  87.335  0.00  0.00    +0.142 HD
ENDBRANCH 118 122
ENDBRANCH 115 118
ENDBRANCH 113 114
BRANCH 113 124
ATOM    124  CB  SER A   2      19.098  71.883  87.272  0.00  0.00    +0.166 C 
BRANCH 124 125
ATOM    125  OG  SER A   2      20.323  71.402  87.819  0.00  0.00    -0.380 OA
ATOM    126  H   SER A   2      20.433  71.754  88.738  0.00  0.00    +0.211 HD
ENDBRANCH 124 125
ENDBRANCH 113 124
ENDBRANCH 110 113
ENDBRANCH 108 109
BRANCH 108 127
ATOM    127  CB  TRP A   3      23.306  73.298  85.605  0.00  0.00    +0.057 C 
BRANCH 127 128
ATOM    128  CG  TRP A   3      23.348  71.843  85.140  0.00  0.00    -0.002 A 
ATOM    129  CD1 TRP A   3      22.516  70.833  85.527  0.00  0.00    +0.068 A 
ATOM    130  NE1 TRP A   3      22.864  69.661  84.905  0.00  0.00    -0.352 N 
ATOM    131  HE1 TRP A   3      22.384  68.746  85.024  0.00  0.00    +0.166 HD
ATOM    132  CE2 TRP A   3      23.948  69.896  84.102  0.00  0.00    +0.056 A 
ATOM    133  CZ2 TRP A   3      24.658  69.026  83.283  0.00  0.00    +0.017 A 
ATOM    134  CH2 TRP A   3      25.715  69.542  82.584  0.00  0.00    +0.001 A 
ATOM    135  CZ3 TRP A   3      26.071  70.901  82.691  0.00  0.00    +0.000 A 
ATOM    136  CE3 TRP A   3      25.361  71.763  83.500  0.00  0.00    +0.001 A 
ATOM    137  CD2 TRP A   3      24.279  71.262  84.228  0.00  0.00    +0.013 A 
ENDBRANCH 127 128
ENDBRANCH 108 127
ENDBRANCH 106 108
ENDBRANCH 103 104
ENDBRANCH 100 103
ENDBRANCH  98  99
BRANCH  98 138
ATOM    138  CB  GLU A   5      27.411  75.065  78.718  0.00  0.00    +0.041 C 
BRANCH 138 139
ATOM    139  CG  GLU A   5      28.676  75.859  78.516  0.00  0.00    +0.116 C 
BRANCH 139 140
ATOM    140  CD  GLU A   5      29.668  75.174  77.606  0.00  0.00    +0.365 C 
ATOM    141  OE2 GLU A   5      30.704  74.713  78.109  0.00  0.00    -0.246 OA
ATOM    142  OE1 GLU A   5      29.423  75.100  76.393  0.00  0.00    -0.246 OA
ENDBRANCH 139 140
ENDBRANCH 138 139
ENDBRANCH  98 138
ENDBRANCH  96  98
ENDBRANCH  93  94
ENDBRANCH  90  93
ENDBRANCH  88  89
BRANCH  88 143
ATOM    143  C   CYS A   7      22.129  80.728  76.983  0.00  0.00    +0.242 C 
ATOM    144  N   ALA A   8      21.234  79.916  76.428  0.00  0.00    -0.297 N 
ATOM    145  H   ALA A   8      20.749  79.219  77.028  0.00  0.00    +0.150 HD
ATOM    146  O   CYS A   7      22.798  81.540  76.341  0.00  0.00    -0.273 OA
BRANCH 144 147
ATOM    147  CA  ALA A   8      20.908  79.969  75.007  0.00  0.00    +0.149 C 
ATOM    148  CB  ALA A   8      20.078  81.208  74.710  0.00  0.00    +0.031 C 
BRANCH 147 149
ATOM    149  C   ALA A   8      22.147  79.920  74.096  0.00  0.00    +0.241 C 
ATOM    150  N   GLN A   9      23.180  79.189  74.502  0.00  0.00    -0.298 N 
ATOM    151  H   GLN A   9      23.159  78.757  75.448  0.00  0.00    +0.150 HD
ATOM    152  O   ALA A   8      22.160  80.545  73.050  0.00  0.00    -0.273 OA
BRANCH 150 153
ATOM    153  CA  GLN A   9      24.343  78.980  73.647  0.00  0.00    +0.137 C 
BRANCH 153 154
ATOM    154  C   GLN A   9      24.123  77.815  72.657  0.00  0.00    +0.227 C 
ATOM    155  O   GLN A   9      23.349  76.906  72.918  0.00  0.00    -0.286 OA
ENDBRANCH 153 154
BRANCH 153 156
ATOM    156  CB  GLN A   9      25.607  78.744  74.491  0.00  0.00    +0.037 C 
BRANCH 156 157
ATOM    157  CG  GLN A   9      26.046  79.932  75.385  0.00  0.00    +0.087 C 
BRANCH 157 158
ATOM    158  CD  GLN A   9      26.261  81.250  74.612  0.00  0.00    +0.219 C 
ATOM    159  NE2 GLN A   9      27.516  81.609  74.403  0.00  0.00    -0.329 N 
ATOM    160 HE21 GLN A   9      28.293  81.001  74.732  0.00  0.00    +0.145 HD
ATOM    161 HE22 GLN A   9      27.727  82.500  73.910  0.00  0.00    +0.145 HD
ATOM    162  OE1 GLN A   9      25.309  81.941  74.239  0.00  0.00    -0.275 OA
ENDBRANCH 157 158
ENDBRANCH 156 157
ENDBRANCH 153 156
ENDBRANCH 150 153
ENDBRANCH 147 149
ENDBRANCH 144 147
ENDBRANCH  88 143
ENDBRANCH  87  88
ENDBRANCH  86  87
ENDBRANCH  85  86
ENDBRANCH  84  85
ENDBRANCH   1  84
TORSDOF 69
REMARK  Name = ../refined-set-2016/2za5/2za5_pocket.pdb
REMARK  222 active torsions:
REMARK  status: ('A' for Active; 'I' for Inactive)
REMARK    1  A    between atoms: _1  and  _5
REMARK    2  A    between atoms: _5  and  _6
REMARK    3  A    between atoms: _5  and  _8
REMARK    4  A    between atoms: _8  and  _9
REMARK    5  A    between atoms: _12  and  _14
REMARK    6  A    between atoms: _14  and  _15
REMARK    7  A    between atoms: _14  and  _17
REMARK    8  A    between atoms: _20  and  _22
REMARK    9  A    between atoms: _22  and  _23
REMARK   10  A    between atoms: _22  and  _25
REMARK   11  A    between atoms: _27  and  _29
REMARK   12  A    between atoms: _29  and  _30
REMARK   13  A    between atoms: _29  and  _32
REMARK   14  A    between atoms: _32  and  _33
REMARK   15  A    between atoms: _38  and  _40
REMARK   16  A    between atoms: _40  and  _41
REMARK   17  A    between atoms: _44  and  _46
REMARK   18  A    between atoms: _46  and  _47
REMARK   19  A    between atoms: _46  and  _49
REMARK   20  A    between atoms: _49  and  _50
REMARK   21  A    between atoms: _50  and  _51
REMARK   22  A    between atoms: _56  and  _58
REMARK   23  A    between atoms: _58  and  _59
REMARK   24  A    between atoms: _58  and  _61
REMARK   25  A    between atoms: _64  and  _66
REMARK   26  A    between atoms: _66  and  _67
REMARK   27  A    between atoms: _66  and  _69
REMARK   28  A    between atoms: _69  and  _70
REMARK   29  A    between atoms: _73  and  _75
REMARK   30  A    between atoms: _75  and  _76
REMARK   31  A    between atoms: _75  and  _78
REMARK   32  A    between atoms: _78  and  _79
REMARK   33  A    between atoms: _84  and  _86
REMARK   34  A    between atoms: _86  and  _87
REMARK   35  A    between atoms: _86  and  _89
REMARK   36  A    between atoms: _89  and  _90
REMARK   37  A    between atoms: _93  and  _95
REMARK   38  A    between atoms: _95  and  _96
REMARK   39  A    between atoms: _95  and  _98
REMARK   40  A    between atoms: _98  and  _99
REMARK   41  A    between atoms: _102  and  _104
REMARK   42  A    between atoms: _104  and  _105
REMARK   43  A    between atoms: _104  and  _107
REMARK   44  A    between atoms: _107  and  _108
REMARK   45  A    between atoms: _108  and  _109
REMARK   46  A    between atoms: _109  and  _110
REMARK   47  A    between atoms: _110  and  _111
REMARK   48  A    between atoms: _115  and  _117
REMARK   49  A    between atoms: _117  and  _118
REMARK   50  A    between atoms: _117  and  _120
REMARK   51  A    between atoms: _120  and  _121
REMARK   52  A    between atoms: _126  and  _127
REMARK   53  A    between atoms: _129  and  _131
REMARK   54  A    between atoms: _131  and  _132
REMARK   55  A    between atoms: _131  and  _134
REMARK   56  A    between atoms: _134  and  _135
REMARK   57  A    between atoms: _140  and  _142
REMARK   58  A    between atoms: _142  and  _143
REMARK   59  A    between atoms: _142  and  _145
REMARK   60  A    between atoms: _145  and  _146
REMARK   61  A    between atoms: _149  and  _151
REMARK   62  A    between atoms: _151  and  _152
REMARK   63  A    between atoms: _154  and  _156
REMARK   64  A    between atoms: _156  and  _157
REMARK   65  A    between atoms: _160  and  _162
REMARK   66  A    between atoms: _162  and  _163
REMARK   67  A    between atoms: _162  and  _165
REMARK   68  A    between atoms: _165  and  _166
REMARK   69  A    between atoms: _171  and  _172
REMARK   70  A    between atoms: _174  and  _176
REMARK   71  A    between atoms: _176  and  _177
REMARK   72  A    between atoms: _176  and  _179
REMARK   73  A    between atoms: _179  and  _180
REMARK   74  A    between atoms: _183  and  _185
REMARK   75  A    between atoms: _185  and  _186
REMARK   76  A    between atoms: _185  and  _188
REMARK   77  A    between atoms: _191  and  _193
REMARK   78  A    between atoms: _193  and  _194
REMARK   79  A    between atoms: _193  and  _196
REMARK   80  A    between atoms: _196  and  _197
REMARK   81  A    between atoms: _197  and  _198
REMARK   82  A    between atoms: _198  and  _199
REMARK   83  A    between atoms: _208  and  _210
REMARK   84  A    between atoms: _210  and  _211
REMARK   85  A    between atoms: _210  and  _213
REMARK   86  A    between atoms: _213  and  _214
REMARK   87  A    between atoms: _217  and  _219
REMARK   88  A    between atoms: _219  and  _220
REMARK   89  A    between atoms: _219  and  _222
REMARK   90  A    between atoms: _225  and  _227
REMARK   91  A    between atoms: _227  and  _228
REMARK   92  A    between atoms: _231  and  _233
REMARK   93  A    between atoms: _233  and  _234
REMARK   94  A    between atoms: _236  and  _238
REMARK   95  A    between atoms: _238  and  _239
REMARK   96  A    between atoms: _238  and  _241
REMARK   97  A    between atoms: _241  and  _242
REMARK   98  A    between atoms: _247  and  _249
REMARK   99  A    between atoms: _249  and  _250
REMARK  100  A    between atoms: _249  and  _252
REMARK  101  A    between atoms: _252  and  _253
REMARK  102  A    between atoms: _253  and  _254
REMARK  103  A    between atoms: _254  and  _255
REMARK  104  A    between atoms: _264  and  _266
REMARK  105  A    between atoms: _266  and  _267
REMARK  106  A    between atoms: _266  and  _269
REMARK  107  A    between atoms: _269  and  _270
REMARK  108  A    between atoms: _273  and  _275
REMARK  109  A    between atoms: _275  and  _276
REMARK  110  A    between atoms: _275  and  _278
REMARK  111  A    between atoms: _278  and  _279
REMARK  112  A    between atoms: _281  and  _283
REMARK  113  A    between atoms: _283  and  _284
REMARK  114  A    between atoms: _283  and  _286
REMARK  115  A    between atoms: _286  and  _287
REMARK  116  A    between atoms: _287  and  _390
REMARK  117  A    between atoms: _288  and  _290
REMARK  118  A    between atoms: _290  and  _291
REMARK  119  A    between atoms: _290  and  _293
REMARK  120  A    between atoms: _293  and  _294
REMARK  121  A    between atoms: _294  and  _295
REMARK  122  A    between atoms: _300  and  _302
REMARK  123  A    between atoms: _302  and  _303
REMARK  124  A    between atoms: _305  and  _307
REMARK  125  A    between atoms: _307  and  _308
REMARK  126  A    between atoms: _307  and  _310
REMARK  127  A    between atoms: _310  and  _311
REMARK  128  A    between atoms: _314  and  _316
REMARK  129  A    between atoms: _316  and  _317
REMARK  130  A    between atoms: _316  and  _319
REMARK  131  A    between atoms: _319  and  _320
REMARK  132  A    between atoms: _322  and  _324
REMARK  133  A    between atoms: _324  and  _325
REMARK  134  A    between atoms: _327  and  _329
REMARK  135  A    between atoms: _329  and  _330
REMARK  136  A    between atoms: _332  and  _334
REMARK  137  A    between atoms: _334  and  _335
REMARK  138  A    between atoms: _334  and  _337
REMARK  139  A    between atoms: _340  and  _342
REMARK  140  A    between atoms: _342  and  _343
REMARK  141  A    between atoms: _342  and  _345
REMARK  142  A    between atoms: _345  and  _346
REMARK  143  A    between atoms: _348  and  _350
REMARK  144  A    between atoms: _350  and  _351
REMARK  145  A    between atoms: _350  and  _353
REMARK  146  A    between atoms: _353  and  _354
REMARK  147  A    between atoms: _364  and  _366
REMARK  148  A    between atoms: _366  and  _367
REMARK  149  A    between atoms: _369  and  _371
REMARK  150  A    between atoms: _371  and  _372
REMARK  151  A    between atoms: _371  and  _374
REMARK  152  A    between atoms: _374  and  _375
REMARK  153  A    between atoms: _375  and  _376
REMARK  154  A    between atoms: _379  and  _381
REMARK  155  A    between atoms: _381  and  _382
REMARK  156  A    between atoms: _384  and  _386
REMARK  157  A    between atoms: _386  and  _387
REMARK  158  A    between atoms: _386  and  _389
REMARK  159  A    between atoms: _389  and  _390
REMARK  160  A    between atoms: _391  and  _393
REMARK  161  A    between atoms: _393  and  _394
REMARK  162  A    between atoms: _397  and  _399
REMARK  163  A    between atoms: _399  and  _400
REMARK  164  A    between atoms: _399  and  _402
REMARK  165  A    between atoms: _402  and  _403
REMARK  166  A    between atoms: _403  and  _404
REMARK  167  A    between atoms: _409  and  _411
REMARK  168  A    between atoms: _411  and  _412
REMARK  169  A    between atoms: _411  and  _414
REMARK  170  A    between atoms: _414  and  _415
REMARK  171  A    between atoms: _420  and  _422
REMARK  172  A    between atoms: _422  and  _423
REMARK  173  A    between atoms: _422  and  _425
REMARK  174  A    between atoms: _425  and  _426
REMARK  175  A    between atoms: _426  and  _427
REMARK  176  A    between atoms: _427  and  _428
REMARK  177  A    between atoms: _438  and  _439
REMARK  178  A    between atoms: _444  and  _446
REMARK  179  A    between atoms: _446  and  _447
REMARK  180  A    between atoms: _449  and  _451
REMARK  181  A    between atoms: _451  and  _452
REMARK  182  A    between atoms: _451  and  _454
REMARK  183  A    between atoms: _454  and  _455
REMARK  184  A    between atoms: _458  and  _460
REMARK  185  A    between atoms: _460  and  _461
REMARK  186  A    between atoms: _460  and  _463
REMARK  187  A    between atoms: _463  and  _464
REMARK  188  A    between atoms: _469  and  _470
REMARK  189  A    between atoms: _472  and  _474
REMARK  190  A    between atoms: _474  and  _475
REMARK  191  A    between atoms: _478  and  _479
REMARK  192  A    between atoms: _484  and  _486
REMARK  193  A    between atoms: _486  and  _487
REMARK  194  A    between atoms: _486  and  _489
REMARK  195  A    between atoms: _489  and  _490
REMARK  196  A    between atoms: _493  and  _495
REMARK  197  A    between atoms: _495  and  _496
REMARK  198  A    between atoms: _495  and  _498
REMARK  199  A    between atoms: _501  and  _503
REMARK  200  A    between atoms: _503  and  _504
REMARK  201  A    between atoms: _503  and  _506
REMARK  202  A    between atoms: _506  and  _507
REMARK  203  A    between atoms: _513  and  _515
REMARK  204  A    between atoms: _515  and  _516
REMARK  205  A    between atoms: _515  and  _518
REMARK  206  A    between atoms: _518  and  _519
REMARK  207  A    between atoms: _524  and  _525
REMARK  208  A    between atoms: _527  and  _529
REMARK  209  A    between atoms: _529  and  _530
REMARK  210  A    between atoms: _529  and  _532
REMARK  211  A    between atoms: _532  and  _533
REMARK  212  A    between atoms: _536  and  _538
REMARK  213  A    between atoms: _538  and  _539
REMARK  214  A    between atoms: _542  and  _544
REMARK  215  A    between atoms: _544  and  _545
REMARK  216  A    between atoms: _544  and  _547
REMARK  217  A    between atoms: _547  and  _548
REMARK  218  A    between atoms: _548  and  _549
REMARK  219  A    between atoms: _554  and  _556
REMARK  220  A    between atoms: _556  and  _557
REMARK  221  A    between atoms: _556  and  _559
REMARK  222  A    between atoms: _559  and  _560
REMARK                            x       y       z     vdW  Elec       q    Type
REMARK                         _______ _______ _______ _____ _____    ______ ____
ROOT
ATOM      1  C   ARG A   2      22.415  74.058  75.529  0.00  0.00    +0.244 C 
ATOM      2  O   ARG A   2      22.207  75.115  76.107  0.00  0.00    -0.273 OA
ATOM      3  N   PRO A   3      21.446  73.161  75.292  0.00  0.00    -0.272 N 
ATOM      4  CA  PRO A   3      20.101  73.332  75.831  0.00  0.00    +0.152 C 
ATOM      5  CB  PRO A   3      19.393  72.027  75.434  0.00  0.00    +0.031 C 
ATOM      6  CG  PRO A   3      20.175  71.468  74.322  0.00  0.00    +0.024 C 
ATOM      7  CD  PRO A   3      21.592  71.905  74.527  0.00  0.00    +0.094 C 
ENDROOT
BRANCH   4   8
ATOM      8  C   PRO A   3      20.134  73.450  77.352  0.00  0.00    +0.241 C 
ATOM      9  O   PRO A   3      21.030  72.922  77.996  0.00  0.00    -0.273 OA
ATOM     10  N   GLY A   4      19.166  74.155  77.921  0.00  0.00    -0.295 N 
ATOM     11  H   GLY A   4      18.499  74.677  77.318  0.00  0.00    +0.150 HD
BRANCH  10  12
ATOM     12  CA  GLY A   4      19.012  74.218  79.365  0.00  0.00    +0.176 C 
BRANCH  12  13
ATOM     13  C   GLY A   4      18.721  72.844  79.940  0.00  0.00    +0.243 C 
ATOM     14  N   ILE A   5      19.310  72.554  81.096  0.00  0.00    -0.297 N 
ATOM     15  H   ILE A   5      19.939  73.256  81.535  0.00  0.00    +0.150 HD
ATOM     16  O   GLY A   4      17.982  72.056  79.346  0.00  0.00    -0.273 OA
BRANCH  14  17
ATOM     17  CA  ILE A   5      19.096  71.280  81.760  0.00  0.00    +0.149 C 
BRANCH  17  18
ATOM     18  C   ILE A   5      18.306  71.443  83.062  0.00  0.00    +0.241 C 
ATOM     19  O   ILE A   5      18.613  72.309  83.875  0.00  0.00    -0.273 OA
ATOM     20  N   TYR A   6      17.271  70.619  83.226  0.00  0.00    -0.298 N 
ATOM     21  H   TYR A   6      17.123  69.863  82.528  0.00  0.00    +0.150 HD
BRANCH  20  22
ATOM     22  CA  TYR A   6      16.337  70.730  84.340  0.00  0.00    +0.141 C 
BRANCH  22  23
ATOM     23  C   TYR A   6      16.367  69.468  85.149  0.00  0.00    +0.227 C 
ATOM     24  O   TYR A   6      16.581  68.385  84.610  0.00  0.00    -0.286 OA
ENDBRANCH  22  23
BRANCH  22  25
ATOM     25  CB  TYR A   6      14.922  70.897  83.802  0.00  0.00    +0.054 C 
BRANCH  25  26
ATOM     26  CG  TYR A   6      14.771  72.168  83.067  0.00  0.00    -0.020 A 
ATOM     27  CD2 TYR A   6      14.121  73.232  83.639  0.00  0.00    -0.001 A 
ATOM     28  CE2 TYR A   6      14.004  74.430  82.970  0.00  0.00    +0.036 A 
ATOM     29  CZ  TYR A   6      14.551  74.567  81.721  0.00  0.00    +0.134 A 
ATOM     30  CE1 TYR A   6      15.221  73.518  81.128  0.00  0.00    +0.036 A 
ATOM     31  CD1 TYR A   6      15.330  72.329  81.802  0.00  0.00    -0.001 A 
BRANCH  29  32
ATOM     32  OH  TYR A   6      14.422  75.763  81.064  0.00  0.00    -0.506 OA
ATOM     33  HH  TYR A   6      14.867  75.703  80.181  0.00  0.00    +0.292 HD
ENDBRANCH  29  32
ENDBRANCH  25  26
ENDBRANCH  22  25
ENDBRANCH  20  22
ENDBRANCH  17  18
BRANCH  17  34
ATOM     34  CB  ILE A   5      20.418  70.554  81.991  0.00  0.00    +0.027 C 
ATOM     35  CG2 ILE A   5      20.170  69.234  82.723  0.00  0.00    +0.002 C 
BRANCH  34  36
ATOM     36  CG1 ILE A   5      21.087  70.317  80.630  0.00  0.00    +0.002 C 
ATOM     37  CD1 ILE A   5      22.531  69.894  80.707  0.00  0.00    +0.000 C 
ENDBRANCH  34  36
ENDBRANCH  17  34
ENDBRANCH  14  17
ENDBRANCH  12  13
ENDBRANCH  10  12
ENDBRANCH   4   8
BRANCH   1  38
ATOM     38  CA  ARG A   2      23.805  73.723  74.993  0.00  0.00    +0.149 C 
BRANCH  38  40
ATOM     39  C   ASN A   1      24.408  72.836  72.801  0.00  0.00    +0.239 C 
ATOM     40  N   ARG A   2      23.801  73.760  73.536  0.00  0.00    -0.297 N 
ATOM     41  H   ARG A   2      23.305  74.538  73.055  0.00  0.00    +0.150 HD
ATOM     42  O   ASN A   1      25.010  71.866  73.276  0.00  0.00    -0.274 OA
BRANCH  39  43
ATOM     43  CA  ASN A   1      24.334  73.038  71.298  0.00  0.00    +0.154 C 
BRANCH  43  44
ATOM     44  N   ASN A   1      24.093  74.425  70.877  0.00  0.00    -0.238 NA
ATOM     45  H   ASN A   1      23.186  74.662  70.427  0.00  0.00    +0.142 HD
ENDBRANCH  43  44
BRANCH  43  46
ATOM     46  CB  ASN A   1      25.604  72.478  70.646  0.00  0.00    +0.111 C 
BRANCH  46  47
ATOM     47  CG  ASN A   1      25.477  72.401  69.148  0.00  0.00    +0.221 C 
ATOM     48  OD1 ASN A   1      24.398  72.105  68.634  0.00  0.00    -0.275 OA
ATOM     49  ND2 ASN A   1      26.564  72.688  68.433  0.00  0.00    -0.329 N 
ATOM     50 HD21 ASN A   1      27.453  72.932  68.914  0.00  0.00    +0.145 HD
ATOM     51 HD22 ASN A   1      26.523  72.668  67.394  0.00  0.00    +0.145 HD
ENDBRANCH  46  47
ENDBRANCH  43  46
ENDBRANCH  39  43
ENDBRANCH  38  40
BRANCH  38  52
ATOM     52  CB  ARG A   2      24.847  74.705  75.529  0.00  0.00    +0.033 C 
BRANCH  52  53
ATOM     53  CG  ARG A   2      26.285  74.353  75.094  0.00  0.00    +0.045 C 
BRANCH  53  54
ATOM     54  CD  ARG A   2      26.735  73.014  75.667  0.00  0.00    +0.174 C 
BRANCH  54  55
ATOM     55  NE  ARG A   2      28.161  72.834  75.429  0.00  0.00    -0.265 N 
ATOM     56  HE  ARG A   2      28.822  73.265  76.107  0.00  0.00    +0.259 HD
ATOM     57  CZ  ARG A   2      28.679  72.158  74.406  0.00  0.00    +0.342 C 
ATOM     58  NH2 ARG A   2      29.990  72.072  74.273  0.00  0.00    -0.292 N 
ATOM     59 HH21 ARG A   2      30.614  72.532  74.966  0.00  0.00    +0.255 HD
ATOM     60 HH22 ARG A   2      30.398  71.545  73.475  0.00  0.00    +0.255 HD
ATOM     61  NH1 ARG A   2      27.891  71.545  73.532  0.00  0.00    -0.292 N 
ATOM     62 HH11 ARG A   2      26.858  71.590  73.643  0.00  0.00    +0.255 HD
ATOM     63 HH12 ARG A   2      28.306  71.020  72.736  0.00  0.00    +0.255 HD
ENDBRANCH  54  55
ENDBRANCH  53  54
ENDBRANCH  52  53
ENDBRANCH  38  52
ENDBRANCH   1  38
TORSDOF 22
REMARK  Name = ../refined-set-2016/2za5/2za5_pocket.pdb
REMARK  222 active torsions:
REMARK  status: ('A' for Active; 'I' for Inactive)
REMARK    1  A    between atoms: _1  and  _5
REMARK    2  A    between atoms: _5  and  _6
REMARK    3  A    between atoms: _5  and  _8
REMARK    4  A    between atoms: _8  and  _9
REMARK    5  A    between atoms: _12  and  _14
REMARK    6  A    between atoms: _14  and  _15
REMARK    7  A    between atoms: _14  and  _17
REMARK    8  A    between atoms: _20  and  _22
REMARK    9  A    between atoms: _22  and  _23
REMARK   10  A    between atoms: _22  and  _25
REMARK   11  A    between atoms: _27  and  _29
REMARK   12  A    between atoms: _29  and  _30
REMARK   13  A    between atoms: _29  and  _32
REMARK   14  A    between atoms: _32  and  _33
REMARK   15  A    between atoms: _38  and  _40
REMARK   16  A    between atoms: _40  and  _41
REMARK   17  A    between atoms: _44  and  _46
REMARK   18  A    between atoms: _46  and  _47
REMARK   19  A    between atoms: _46  and  _49
REMARK   20  A    between atoms: _49  and  _50
REMARK   21  A    between atoms: _50  and  _51
REMARK   22  A    between atoms: _56  and  _58
REMARK   23  A    between atoms: _58  and  _59
REMARK   24  A    between atoms: _58  and  _61
REMARK   25  A    between atoms: _64  and  _66
REMARK   26  A    between atoms: _66  and  _67
REMARK   27  A    between atoms: _66  and  _69
REMARK   28  A    between atoms: _69  and  _70
REMARK   29  A    between atoms: _73  and  _75
REMARK   30  A    between atoms: _75  and  _76
REMARK   31  A    between atoms: _75  and  _78
REMARK   32  A    between atoms: _78  and  _79
REMARK   33  A    between atoms: _84  and  _86
REMARK   34  A    between atoms: _86  and  _87
REMARK   35  A    between atoms: _86  and  _89
REMARK   36  A    between atoms: _89  and  _90
REMARK   37  A    between atoms: _93  and  _95
REMARK   38  A    between atoms: _95  and  _96
REMARK   39  A    between atoms: _95  and  _98
REMARK   40  A    between atoms: _98  and  _99
REMARK   41  A    between atoms: _102  and  _104
REMARK   42  A    between atoms: _104  and  _105
REMARK   43  A    between atoms: _104  and  _107
REMARK   44  A    between atoms: _107  and  _108
REMARK   45  A    between atoms: _108  and  _109
REMARK   46  A    between atoms: _109  and  _110
REMARK   47  A    between atoms: _110  and  _111
REMARK   48  A    between atoms: _115  and  _117
REMARK   49  A    between atoms: _117  and  _118
REMARK   50  A    between atoms: _117  and  _120
REMARK   51  A    between atoms: _120  and  _121
REMARK   52  A    between atoms: _126  and  _127
REMARK   53  A    between atoms: _129  and  _131
REMARK   54  A    between atoms: _131  and  _132
REMARK   55  A    between atoms: _131  and  _134
REMARK   56  A    between atoms: _134  and  _135
REMARK   57  A    between atoms: _140  and  _142
REMARK   58  A    between atoms: _142  and  _143
REMARK   59  A    between atoms: _142  and  _145
REMARK   60  A    between atoms: _145  and  _146
REMARK   61  A    between atoms: _149  and  _151
REMARK   62  A    between atoms: _151  and  _152
REMARK   63  A    between atoms: _154  and  _156
REMARK   64  A    between atoms: _156  and  _157
REMARK   65  A    between atoms: _160  and  _162
REMARK   66  A    between atoms: _162  and  _163
REMARK   67  A    between atoms: _162  and  _165
REMARK   68  A    between atoms: _165  and  _166
REMARK   69  A    between atoms: _171  and  _172
REMARK   70  A    between atoms: _174  and  _176
REMARK   71  A    between atoms: _176  and  _177
REMARK   72  A    between atoms: _176  and  _179
REMARK   73  A    between atoms: _179  and  _180
REMARK   74  A    between atoms: _183  and  _185
REMARK   75  A    between atoms: _185  and  _186
REMARK   76  A    between atoms: _185  and  _188
REMARK   77  A    between atoms: _191  and  _193
REMARK   78  A    between atoms: _193  and  _194
REMARK   79  A    between atoms: _193  and  _196
REMARK   80  A    between atoms: _196  and  _197
REMARK   81  A    between atoms: _197  and  _198
REMARK   82  A    between atoms: _198  and  _199
REMARK   83  A    between atoms: _208  and  _210
REMARK   84  A    between atoms: _210  and  _211
REMARK   85  A    between atoms: _210  and  _213
REMARK   86  A    between atoms: _213  and  _214
REMARK   87  A    between atoms: _217  and  _219
REMARK   88  A    between atoms: _219  and  _220
REMARK   89  A    between atoms: _219  and  _222
REMARK   90  A    between atoms: _225  and  _227
REMARK   91  A    between atoms: _227  and  _228
REMARK   92  A    between atoms: _231  and  _233
REMARK   93  A    between atoms: _233  and  _234
REMARK   94  A    between atoms: _236  and  _238
REMARK   95  A    between atoms: _238  and  _239
REMARK   96  A    between atoms: _238  and  _241
REMARK   97  A    between atoms: _241  and  _242
REMARK   98  A    between atoms: _247  and  _249
REMARK   99  A    between atoms: _249  and  _250
REMARK  100  A    between atoms: _249  and  _252
REMARK  101  A    between atoms: _252  and  _253
REMARK  102  A    between atoms: _253  and  _254
REMARK  103  A    between atoms: _254  and  _255
REMARK  104  A    between atoms: _264  and  _266
REMARK  105  A    between atoms: _266  and  _267
REMARK  106  A    between atoms: _266  and  _269
REMARK  107  A    between atoms: _269  and  _270
REMARK  108  A    between atoms: _273  and  _275
REMARK  109  A    between atoms: _275  and  _276
REMARK  110  A    between atoms: _275  and  _278
REMARK  111  A    between atoms: _278  and  _279
REMARK  112  A    between atoms: _281  and  _283
REMARK  113  A    between atoms: _283  and  _284
REMARK  114  A    between atoms: _283  and  _286
REMARK  115  A    between atoms: _286  and  _287
REMARK  116  A    between atoms: _287  and  _390
REMARK  117  A    between atoms: _288  and  _290
REMARK  118  A    between atoms: _290  and  _291
REMARK  119  A    between atoms: _290  and  _293
REMARK  120  A    between atoms: _293  and  _294
REMARK  121  A    between atoms: _294  and  _295
REMARK  122  A    between atoms: _300  and  _302
REMARK  123  A    between atoms: _302  and  _303
REMARK  124  A    between atoms: _305  and  _307
REMARK  125  A    between atoms: _307  and  _308
REMARK  126  A    between atoms: _307  and  _310
REMARK  127  A    between atoms: _310  and  _311
REMARK  128  A    between atoms: _314  and  _316
REMARK  129  A    between atoms: _316  and  _317
REMARK  130  A    between atoms: _316  and  _319
REMARK  131  A    between atoms: _319  and  _320
REMARK  132  A    between atoms: _322  and  _324
REMARK  133  A    between atoms: _324  and  _325
REMARK  134  A    between atoms: _327  and  _329
REMARK  135  A    between atoms: _329  and  _330
REMARK  136  A    between atoms: _332  and  _334
REMARK  137  A    between atoms: _334  and  _335
REMARK  138  A    between atoms: _334  and  _337
REMARK  139  A    between atoms: _340  and  _342
REMARK  140  A    between atoms: _342  and  _343
REMARK  141  A    between atoms: _342  and  _345
REMARK  142  A    between atoms: _345  and  _346
REMARK  143  A    between atoms: _348  and  _350
REMARK  144  A    between atoms: _350  and  _351
REMARK  145  A    between atoms: _350  and  _353
REMARK  146  A    between atoms: _353  and  _354
REMARK  147  A    between atoms: _364  and  _366
REMARK  148  A    between atoms: _366  and  _367
REMARK  149  A    between atoms: _369  and  _371
REMARK  150  A    between atoms: _371  and  _372
REMARK  151  A    between atoms: _371  and  _374
REMARK  152  A    between atoms: _374  and  _375
REMARK  153  A    between atoms: _375  and  _376
REMARK  154  A    between atoms: _379  and  _381
REMARK  155  A    between atoms: _381  and  _382
REMARK  156  A    between atoms: _384  and  _386
REMARK  157  A    between atoms: _386  and  _387
REMARK  158  A    between atoms: _386  and  _389
REMARK  159  A    between atoms: _389  and  _390
REMARK  160  A    between atoms: _391  and  _393
REMARK  161  A    between atoms: _393  and  _394
REMARK  162  A    between atoms: _397  and  _399
REMARK  163  A    between atoms: _399  and  _400
REMARK  164  A    between atoms: _399  and  _402
REMARK  165  A    between atoms: _402  and  _403
REMARK  166  A    between atoms: _403  and  _404
REMARK  167  A    between atoms: _409  and  _411
REMARK  168  A    between atoms: _411  and  _412
REMARK  169  A    between atoms: _411  and  _414
REMARK  170  A    between atoms: _414  and  _415
REMARK  171  A    between atoms: _420  and  _422
REMARK  172  A    between atoms: _422  and  _423
REMARK  173  A    between atoms: _422  and  _425
REMARK  174  A    between atoms: _425  and  _426
REMARK  175  A    between atoms: _426  and  _427
REMARK  176  A    between atoms: _427  and  _428
REMARK  177  A    between atoms: _438  and  _439
REMARK  178  A    between atoms: _444  and  _446
REMARK  179  A    between atoms: _446  and  _447
REMARK  180  A    between atoms: _449  and  _451
REMARK  181  A    between atoms: _451  and  _452
REMARK  182  A    between atoms: _451  and  _454
REMARK  183  A    between atoms: _454  and  _455
REMARK  184  A    between atoms: _458  and  _460
REMARK  185  A    between atoms: _460  and  _461
REMARK  186  A    between atoms: _460  and  _463
REMARK  187  A    between atoms: _463  and  _464
REMARK  188  A    between atoms: _469  and  _470
REMARK  189  A    between atoms: _472  and  _474
REMARK  190  A    between atoms: _474  and  _475
REMARK  191  A    between atoms: _478  and  _479
REMARK  192  A    between atoms: _484  and  _486
REMARK  193  A    between atoms: _486  and  _487
REMARK  194  A    between atoms: _486  and  _489
REMARK  195  A    between atoms: _489  and  _490
REMARK  196  A    between atoms: _493  and  _495
REMARK  197  A    between atoms: _495  and  _496
REMARK  198  A    between atoms: _495  and  _498
REMARK  199  A    between atoms: _501  and  _503
REMARK  200  A    between atoms: _503  and  _504
REMARK  201  A    between atoms: _503  and  _506
REMARK  202  A    between atoms: _506  and  _507
REMARK  203  A    between atoms: _513  and  _515
REMARK  204  A    between atoms: _515  and  _516
REMARK  205  A    between atoms: _515  and  _518
REMARK  206  A    between atoms: _518  and  _519
REMARK  207  A    between atoms: _524  and  _525
REMARK  208  A    between atoms: _527  and  _529
REMARK  209  A    between atoms: _529  and  _530
REMARK  210  A    between atoms: _529  and  _532
REMARK  211  A    between atoms: _532  and  _533
REMARK  212  A    between atoms: _536  and  _538
REMARK  213  A    between atoms: _538  and  _539
REMARK  214  A    between atoms: _542  and  _544
REMARK  215  A    between atoms: _544  and  _545
REMARK  216  A    between atoms: _544  and  _547
REMARK  217  A    between atoms: _547  and  _548
REMARK  218  A    between atoms: _548  and  _549
REMARK  219  A    between atoms: _554  and  _556
REMARK  220  A    between atoms: _556  and  _557
REMARK  221  A    between atoms: _556  and  _559
REMARK  222  A    between atoms: _559  and  _560
REMARK                            x       y       z     vdW  Elec       q    Type
REMARK                         _______ _______ _______ _____ _____    ______ ____
ROOT
ATOM      1  CA  ASP A   3      34.988  72.663  75.760  0.00  0.00    +0.160 C 
ENDROOT
BRANCH   1   3
ATOM      2  C   PRO A   2      35.437  70.817  77.198  0.00  0.00    +0.241 C 
ATOM      3  N   ASP A   3      35.135  72.101  77.093  0.00  0.00    -0.297 N 
ATOM      4  H   ASP A   3      35.006  72.691  77.940  0.00  0.00    +0.150 HD
ATOM      5  O   PRO A   2      35.529  70.099  76.209  0.00  0.00    -0.273 OA
BRANCH   2  12
ATOM      6  C   GLY A   1      37.050  71.891  79.862  0.00  0.00    +0.243 C 
ATOM      7  O   GLY A   1      37.212  72.655  80.796  0.00  0.00    -0.273 OA
ATOM      8  N   PRO A   2      35.887  71.258  79.644  0.00  0.00    -0.272 N 
ATOM      9  CD  PRO A   2      34.698  71.472  80.494  0.00  0.00    +0.094 C 
ATOM     10  CG  PRO A   2      33.655  70.559  79.890  0.00  0.00    +0.024 C 
ATOM     11  CB  PRO A   2      34.419  69.510  79.090  0.00  0.00    +0.031 C 
ATOM     12  CA  PRO A   2      35.670  70.239  78.604  0.00  0.00    +0.152 C 
BRANCH   6  13
ATOM     13  CA  GLY A   1      38.195  71.621  78.900  0.00  0.00    +0.170 C 
BRANCH  13  14
ATOM     14  N   GLY A   1      39.356  72.409  79.269  0.00  0.00    -0.236 NA
ATOM     15  H   GLY A   1      39.384  72.847  80.212  0.00  0.00    +0.142 HD
ENDBRANCH  13  14
ENDBRANCH   6  13
ENDBRANCH   2  12
ENDBRANCH   1   3
BRANCH   1  16
ATOM     16  C   ASP A   3      36.335  72.686  75.051  0.00  0.00    +0.241 C 
ATOM     17  O   ASP A   3      37.376  72.935  75.665  0.00  0.00    -0.273 OA
ATOM     18  N   VAL A   4      36.299  72.404  73.757  0.00  0.00    -0.298 N 
ATOM     19  H   VAL A   4      35.383  72.181  73.318  0.00  0.00    +0.150 HD
BRANCH  18  20
ATOM     20  CA  VAL A   4      37.493  72.395  72.930  0.00  0.00    +0.137 C 
BRANCH  20  21
ATOM     21  CB  VAL A   4      37.243  71.551  71.680  0.00  0.00    +0.026 C 
ATOM     22  CG2 VAL A   4      36.946  70.067  72.076  0.00  0.00    +0.002 C 
ATOM     23  CG1 VAL A   4      38.419  71.650  70.721  0.00  0.00    +0.002 C 
ENDBRANCH  20  21
BRANCH  20  24
ATOM     24  C   VAL A   4      37.867  73.820  72.521  0.00  0.00    +0.227 C 
ATOM     25  O   VAL A   4      37.026  74.581  72.043  0.00  0.00    -0.286 OA
ENDBRANCH  20  24
ENDBRANCH  18  20
ENDBRANCH   1  16
BRANCH   1  26
ATOM     26  CB  ASP A   3      34.375  74.057  75.804  0.00  0.00    +0.143 C 
BRANCH  26  27
ATOM     27  CG  ASP A   3      32.863  74.021  75.975  0.00  0.00    +0.367 C 
ATOM     28  OD2 ASP A   3      32.286  75.101  76.205  0.00  0.00    -0.246 OA
ATOM     29  OD1 ASP A   3      32.258  72.921  75.878  0.00  0.00    -0.246 OA
ENDBRANCH  26  27
ENDBRANCH   1  26
TORSDOF 10
REMARK  Name = ../refined-set-2016/2za5/2za5_pocket.pdb
REMARK  222 active torsions:
REMARK  status: ('A' for Active; 'I' for Inactive)
REMARK    1  A    between atoms: _1  and  _5
REMARK    2  A    between atoms: _5  and  _6
REMARK    3  A    between atoms: _5  and  _8
REMARK    4  A    between atoms: _8  and  _9
REMARK    5  A    between atoms: _12  and  _14
REMARK    6  A    between atoms: _14  and  _15
REMARK    7  A    between atoms: _14  and  _17
REMARK    8  A    between atoms: _20  and  _22
REMARK    9  A    between atoms: _22  and  _23
REMARK   10  A    between atoms: _22  and  _25
REMARK   11  A    between atoms: _27  and  _29
REMARK   12  A    between atoms: _29  and  _30
REMARK   13  A    between atoms: _29  and  _32
REMARK   14  A    between atoms: _32  and  _33
REMARK   15  A    between atoms: _38  and  _40
REMARK   16  A    between atoms: _40  and  _41
REMARK   17  A    between atoms: _44  and  _46
REMARK   18  A    between atoms: _46  and  _47
REMARK   19  A    between atoms: _46  and  _49
REMARK   20  A    between atoms: _49  and  _50
REMARK   21  A    between atoms: _50  and  _51
REMARK   22  A    between atoms: _56  and  _58
REMARK   23  A    between atoms: _58  and  _59
REMARK   24  A    between atoms: _58  and  _61
REMARK   25  A    between atoms: _64  and  _66
REMARK   26  A    between atoms: _66  and  _67
REMARK   27  A    between atoms: _66  and  _69
REMARK   28  A    between atoms: _69  and  _70
REMARK   29  A    between atoms: _73  and  _75
REMARK   30  A    between atoms: _75  and  _76
REMARK   31  A    between atoms: _75  and  _78
REMARK   32  A    between atoms: _78  and  _79
REMARK   33  A    between atoms: _84  and  _86
REMARK   34  A    between atoms: _86  and  _87
REMARK   35  A    between atoms: _86  and  _89
REMARK   36  A    between atoms: _89  and  _90
REMARK   37  A    between atoms: _93  and  _95
REMARK   38  A    between atoms: _95  and  _96
REMARK   39  A    between atoms: _95  and  _98
REMARK   40  A    between atoms: _98  and  _99
REMARK   41  A    between atoms: _102  and  _104
REMARK   42  A    between atoms: _104  and  _105
REMARK   43  A    between atoms: _104  and  _107
REMARK   44  A    between atoms: _107  and  _108
REMARK   45  A    between atoms: _108  and  _109
REMARK   46  A    between atoms: _109  and  _110
REMARK   47  A    between atoms: _110  and  _111
REMARK   48  A    between atoms: _115  and  _117
REMARK   49  A    between atoms: _117  and  _118
REMARK   50  A    between atoms: _117  and  _120
REMARK   51  A    between atoms: _120  and  _121
REMARK   52  A    between atoms: _126  and  _127
REMARK   53  A    between atoms: _129  and  _131
REMARK   54  A    between atoms: _131  and  _132
REMARK   55  A    between atoms: _131  and  _134
REMARK   56  A    between atoms: _134  and  _135
REMARK   57  A    between atoms: _140  and  _142
REMARK   58  A    between atoms: _142  and  _143
REMARK   59  A    between atoms: _142  and  _145
REMARK   60  A    between atoms: _145  and  _146
REMARK   61  A    between atoms: _149  and  _151
REMARK   62  A    between atoms: _151  and  _152
REMARK   63  A    between atoms: _154  and  _156
REMARK   64  A    between atoms: _156  and  _157
REMARK   65  A    between atoms: _160  and  _162
REMARK   66  A    between atoms: _162  and  _163
REMARK   67  A    between atoms: _162  and  _165
REMARK   68  A    between atoms: _165  and  _166
REMARK   69  A    between atoms: _171  and  _172
REMARK   70  A    between atoms: _174  and  _176
REMARK   71  A    between atoms: _176  and  _177
REMARK   72  A    between atoms: _176  and  _179
REMARK   73  A    between atoms: _179  and  _180
REMARK   74  A    between atoms: _183  and  _185
REMARK   75  A    between atoms: _185  and  _186
REMARK   76  A    between atoms: _185  and  _188
REMARK   77  A    between atoms: _191  and  _193
REMARK   78  A    between atoms: _193  and  _194
REMARK   79  A    between atoms: _193  and  _196
REMARK   80  A    between atoms: _196  and  _197
REMARK   81  A    between atoms: _197  and  _198
REMARK   82  A    between atoms: _198  and  _199
REMARK   83  A    between atoms: _208  and  _210
REMARK   84  A    between atoms: _210  and  _211
REMARK   85  A    between atoms: _210  and  _213
REMARK   86  A    between atoms: _213  and  _214
REMARK   87  A    between atoms: _217  and  _219
REMARK   88  A    between atoms: _219  and  _220
REMARK   89  A    between atoms: _219  and  _222
REMARK   90  A    between atoms: _225  and  _227
REMARK   91  A    between atoms: _227  and  _228
REMARK   92  A    between atoms: _231  and  _233
REMARK   93  A    between atoms: _233  and  _234
REMARK   94  A    between atoms: _236  and  _238
REMARK   95  A    between atoms: _238  and  _239
REMARK   96  A    between atoms: _238  and  _241
REMARK   97  A    between atoms: _241  and  _242
REMARK   98  A    between atoms: _247  and  _249
REMARK   99  A    between atoms: _249  and  _250
REMARK  100  A    between atoms: _249  and  _252
REMARK  101  A    between atoms: _252  and  _253
REMARK  102  A    between atoms: _253  and  _254
REMARK  103  A    between atoms: _254  and  _255
REMARK  104  A    between atoms: _264  and  _266
REMARK  105  A    between atoms: _266  and  _267
REMARK  106  A    between atoms: _266  and  _269
REMARK  107  A    between atoms: _269  and  _270
REMARK  108  A    between atoms: _273  and  _275
REMARK  109  A    between atoms: _275  and  _276
REMARK  110  A    between atoms: _275  and  _278
REMARK  111  A    between atoms: _278  and  _279
REMARK  112  A    between atoms: _281  and  _283
REMARK  113  A    between atoms: _283  and  _284
REMARK  114  A    between atoms: _283  and  _286
REMARK  115  A    between atoms: _286  and  _287
REMARK  116  A    between atoms: _287  and  _390
REMARK  117  A    between atoms: _288  and  _290
REMARK  118  A    between atoms: _290  and  _291
REMARK  119  A    between atoms: _290  and  _293
REMARK  120  A    between atoms: _293  and  _294
REMARK  121  A    between atoms: _294  and  _295
REMARK  122  A    between atoms: _300  and  _302
REMARK  123  A    between atoms: _302  and  _303
REMARK  124  A    between atoms: _305  and  _307
REMARK  125  A    between atoms: _307  and  _308
REMARK  126  A    between atoms: _307  and  _310
REMARK  127  A    between atoms: _310  and  _311
REMARK  128  A    between atoms: _314  and  _316
REMARK  129  A    between atoms: _316  and  _317
REMARK  130  A    between atoms: _316  and  _319
REMARK  131  A    between atoms: _319  and  _320
REMARK  132  A    between atoms: _322  and  _324
REMARK  133  A    between atoms: _324  and  _325
REMARK  134  A    between atoms: _327  and  _329
REMARK  135  A    between atoms: _329  and  _330
REMARK  136  A    between atoms: _332  and  _334
REMARK  137  A    between atoms: _334  and  _335
REMARK  138  A    between atoms: _334  and  _337
REMARK  139  A    between atoms: _340  and  _342
REMARK  140  A    between atoms: _342  and  _343
REMARK  141  A    between atoms: _342  and  _345
REMARK  142  A    between atoms: _345  and  _346
REMARK  143  A    between atoms: _348  and  _350
REMARK  144  A    between atoms: _350  and  _351
REMARK  145  A    between atoms: _350  and  _353
REMARK  146  A    between atoms: _353  and  _354
REMARK  147  A    between atoms: _364  and  _366
REMARK  148  A    between atoms: _366  and  _367
REMARK  149  A    between atoms: _369  and  _371
REMARK  150  A    between atoms: _371  and  _372
REMARK  151  A    between atoms: _371  and  _374
REMARK  152  A    between atoms: _374  and  _375
REMARK  153  A    between atoms: _375  and  _376
REMARK  154  A    between atoms: _379  and  _381
REMARK  155  A    between atoms: _381  and  _382
REMARK  156  A    between atoms: _384  and  _386
REMARK  157  A    between atoms: _386  and  _387
REMARK  158  A    between atoms: _386  and  _389
REMARK  159  A    between atoms: _389  and  _390
REMARK  160  A    between atoms: _391  and  _393
REMARK  161  A    between atoms: _393  and  _394
REMARK  162  A    between atoms: _397  and  _399
REMARK  163  A    between atoms: _399  and  _400
REMARK  164  A    between atoms: _399  and  _402
REMARK  165  A    between atoms: _402  and  _403
REMARK  166  A    between atoms: _403  and  _404
REMARK  167  A    between atoms: _409  and  _411
REMARK  168  A    between atoms: _411  and  _412
REMARK  169  A    between atoms: _411  and  _414
REMARK  170  A    between atoms: _414  and  _415
REMARK  171  A    between atoms: _420  and  _422
REMARK  172  A    between atoms: _422  and  _423
REMARK  173  A    between atoms: _422  and  _425
REMARK  174  A    between atoms: _425  and  _426
REMARK  175  A    between atoms: _426  and  _427
REMARK  176  A    between atoms: _427  and  _428
REMARK  177  A    between atoms: _438  and  _439
REMARK  178  A    between atoms: _444  and  _446
REMARK  179  A    between atoms: _446  and  _447
REMARK  180  A    between atoms: _449  and  _451
REMARK  181  A    between atoms: _451  and  _452
REMARK  182  A    between atoms: _451  and  _454
REMARK  183  A    between atoms: _454  and  _455
REMARK  184  A    between atoms: _458  and  _460
REMARK  185  A    between atoms: _460  and  _461
REMARK  186  A    between atoms: _460  and  _463
REMARK  187  A    between atoms: _463  and  _464
REMARK  188  A    between atoms: _469  and  _470
REMARK  189  A    between atoms: _472  and  _474
REMARK  190  A    between atoms: _474  and  _475
REMARK  191  A    between atoms: _478  and  _479
REMARK  192  A    between atoms: _484  and  _486
REMARK  193  A    between atoms: _486  and  _487
REMARK  194  A    between atoms: _486  and  _489
REMARK  195  A    between atoms: _489  and  _490
REMARK  196  A    between atoms: _493  and  _495
REMARK  197  A    between atoms: _495  and  _496
REMARK  198  A    between atoms: _495  and  _498
REMARK  199  A    between atoms: _501  and  _503
REMARK  200  A    between atoms: _503  and  _504
REMARK  201  A    between atoms: _503  and  _506
REMARK  202  A    between atoms: _506  and  _507
REMARK  203  A    between atoms: _513  and  _515
REMARK  204  A    between atoms: _515  and  _516
REMARK  205  A    between atoms: _515  and  _518
REMARK  206  A    between atoms: _518  and  _519
REMARK  207  A    between atoms: _524  and  _525
REMARK  208  A    between atoms: _527  and  _529
REMARK  209  A    between atoms: _529  and  _530
REMARK  210  A    between atoms: _529  and  _532
REMARK  211  A    between atoms: _532  and  _533
REMARK  212  A    between atoms: _536  and  _538
REMARK  213  A    between atoms: _538  and  _539
REMARK  214  A    between atoms: _542  and  _544
REMARK  215  A    between atoms: _544  and  _545
REMARK  216  A    between atoms: _544  and  _547
REMARK  217  A    between atoms: _547  and  _548
REMARK  218  A    between atoms: _548  and  _549
REMARK  219  A    between atoms: _554  and  _556
REMARK  220  A    between atoms: _556  and  _557
REMARK  221  A    between atoms: _556  and  _559
REMARK  222  A    between atoms: _559  and  _560
REMARK                            x       y       z     vdW  Elec       q    Type
REMARK                         _______ _______ _______ _____ _____    ______ ____
ROOT
ATOM      1  CA  THR A   3      33.775  68.345  85.850  0.00  0.00    +0.176 C 
ENDROOT
BRANCH   1   3
ATOM      2  C   TYR A   2      33.517  67.915  83.483  0.00  0.00    +0.241 C 
ATOM      3  N   THR A   3      33.608  67.419  84.719  0.00  0.00    -0.295 N 
ATOM      4  H   THR A   3      33.562  66.393  84.880  0.00  0.00    +0.150 HD
ATOM      5  O   TYR A   2      33.249  69.089  83.262  0.00  0.00    -0.273 OA
BRANCH   2   6
ATOM      6  CA  TYR A   2      33.763  66.994  82.305  0.00  0.00    +0.153 C 
BRANCH   6   8
ATOM      7  C   PHE A   1      35.295  65.269  81.638  0.00  0.00    +0.239 C 
ATOM      8  N   TYR A   2      34.504  65.768  82.581  0.00  0.00    -0.297 N 
ATOM      9  H   TYR A   2      34.414  65.292  83.501  0.00  0.00    +0.150 HD
ATOM     10  O   PHE A   1      35.160  65.532  80.449  0.00  0.00    -0.274 OA
BRANCH   7  11
ATOM     11  CA  PHE A   1      36.446  64.398  82.117  0.00  0.00    +0.149 C 
BRANCH  11  12
ATOM     12  N   PHE A   1      36.599  63.101  81.451  0.00  0.00    -0.238 NA
ATOM     13  H   PHE A   1      37.320  62.958  80.716  0.00  0.00    +0.142 HD
ENDBRANCH  11  12
BRANCH  11  14
ATOM     14  CB  PHE A   1      37.702  65.271  82.061  0.00  0.00    +0.053 C 
BRANCH  14  15
ATOM     15  CG  PHE A   1      37.481  66.637  82.674  0.00  0.00    -0.020 A 
ATOM     16  CD2 PHE A   1      37.450  66.793  84.050  0.00  0.00    -0.004 A 
ATOM     17  CE2 PHE A   1      37.223  68.053  84.627  0.00  0.00    -0.000 A 
ATOM     18  CZ  PHE A   1      37.006  69.160  83.815  0.00  0.00    -0.000 A 
ATOM     19  CE1 PHE A   1      37.022  69.009  82.432  0.00  0.00    -0.000 A 
ATOM     20  CD1 PHE A   1      37.247  67.755  81.873  0.00  0.00    -0.004 A 
ENDBRANCH  14  15
ENDBRANCH  11  14
ENDBRANCH   7  11
ENDBRANCH   6   8
BRANCH   6  21
ATOM     21  CB  TYR A   2      32.486  66.753  81.510  0.00  0.00    +0.055 C 
BRANCH  21  22
ATOM     22  CG  TYR A   2      31.376  66.040  82.227  0.00  0.00    -0.020 A 
ATOM     23  CD2 TYR A   2      30.255  66.730  82.655  0.00  0.00    -0.001 A 
ATOM     24  CE2 TYR A   2      29.214  66.073  83.280  0.00  0.00    +0.036 A 
ATOM     25  CZ  TYR A   2      29.287  64.715  83.471  0.00  0.00    +0.134 A 
ATOM     26  CE1 TYR A   2      30.395  64.010  83.056  0.00  0.00    +0.036 A 
ATOM     27  CD1 TYR A   2      31.425  64.675  82.429  0.00  0.00    -0.001 A 
BRANCH  25  28
ATOM     28  OH  TYR A   2      28.260  64.049  84.087  0.00  0.00    -0.506 OA
ATOM     29  HH  TYR A   2      27.545  64.692  84.322  0.00  0.00    +0.292 HD
ENDBRANCH  25  28
ENDBRANCH  21  22
ENDBRANCH   6  21
ENDBRANCH   2   6
ENDBRANCH   1   3
BRANCH   1  30
ATOM     30  C   THR A   3      34.782  67.852  86.858  0.00  0.00    +0.243 C 
ATOM     31  N   ALA A   4      35.396  68.803  87.548  0.00  0.00    -0.297 N 
ATOM     32  H   ALA A   4      35.180  69.799  87.339  0.00  0.00    +0.150 HD
ATOM     33  O   THR A   3      34.994  66.651  87.016  0.00  0.00    -0.273 OA
BRANCH  31  34
ATOM     34  CA  ALA A   4      36.358  68.494  88.584  0.00  0.00    +0.149 C 
ATOM     35  CB  ALA A   4      36.913  69.784  89.170  0.00  0.00    +0.031 C 
BRANCH  34  36
ATOM     36  C   ALA A   4      35.760  67.596  89.684  0.00  0.00    +0.241 C 
ATOM     37  O   ALA A   4      36.441  66.708  90.224  0.00  0.00    -0.273 OA
ATOM     38  N   GLN A   5      34.488  67.823  90.015  0.00  0.00    -0.297 N 
ATOM     39  H   GLN A   5      33.936  68.534  89.494  0.00  0.00    +0.150 HD
BRANCH  38  40
ATOM     40  CA  GLN A   5      33.869  67.076  91.106  0.00  0.00    +0.149 C 
BRANCH  40  41
ATOM     41  C   GLN A   5      33.605  65.629  90.705  0.00  0.00    +0.241 C 
ATOM     42  O   GLN A   5      33.659  64.735  91.528  0.00  0.00    -0.273 OA
ATOM     43  N   ILE A   6      33.331  65.402  89.431  0.00  0.00    -0.298 N 
ATOM     44  H   ILE A   6      33.292  66.195  88.759  0.00  0.00    +0.150 HD
BRANCH  43  45
ATOM     45  CA  ILE A   6      33.084  64.048  88.969  0.00  0.00    +0.137 C 
BRANCH  45  46
ATOM     46  C   ILE A   6      34.403  63.286  88.825  0.00  0.00    +0.227 C 
ATOM     47  O   ILE A   6      34.455  62.097  89.085  0.00  0.00    -0.286 OA
ENDBRANCH  45  46
BRANCH  45  48
ATOM     48  CB  ILE A   6      32.261  64.041  87.686  0.00  0.00    +0.026 C 
ATOM     49  CG2 ILE A   6      32.078  62.612  87.171  0.00  0.00    +0.002 C 
BRANCH  48  50
ATOM     50  CG1 ILE A   6      30.905  64.707  87.959  0.00  0.00    +0.002 C 
ATOM     51  CD1 ILE A   6      30.075  64.956  86.717  0.00  0.00    +0.000 C 
ENDBRANCH  48  50
ENDBRANCH  45  48
ENDBRANCH  43  45
ENDBRANCH  40  41
BRANCH  40  52
ATOM     52  CB  GLN A   5      32.584  67.753  91.594  0.00  0.00    +0.039 C 
BRANCH  52  53
ATOM     53  CG  GLN A   5      32.851  69.041  92.337  0.00  0.00    +0.087 C 
BRANCH  53  54
ATOM     54  CD  GLN A   5      33.271  70.154  91.396  0.00  0.00    +0.219 C 
ATOM     55  NE2 GLN A   5      34.175  71.004  91.845  0.00  0.00    -0.329 N 
ATOM     56 HE21 GLN A   5      34.560  70.895  92.805  0.00  0.00    +0.145 HD
ATOM     57 HE22 GLN A   5      34.502  71.783  91.239  0.00  0.00    +0.145 HD
ATOM     58  OE1 GLN A   5      32.788  70.240  90.275  0.00  0.00    -0.275 OA
ENDBRANCH  53  54
ENDBRANCH  52  53
ENDBRANCH  40  52
ENDBRANCH  38  40
ENDBRANCH  34  36
ENDBRANCH  31  34
ENDBRANCH   1  30
BRANCH   1  59
ATOM     59  CB  THR A   3      32.468  68.679  86.606  0.00  0.00    +0.137 C 
ATOM     60  CG2 THR A   3      31.283  68.699  85.663  0.00  0.00    +0.034 C 
BRANCH  59  61
ATOM     61  OG1 THR A   3      32.255  67.718  87.642  0.00  0.00    -0.382 OA
ATOM     62  HG1 THR A   3      31.418  67.934  88.124  0.00  0.00    +0.210 HD
ENDBRANCH  59  61
ENDBRANCH   1  59
TORSDOF 24
REMARK  Name = ../refined-set-2016/2za5/2za5_pocket.pdb
REMARK  222 active torsions:
REMARK  status: ('A' for Active; 'I' for Inactive)
REMARK    1  A    between atoms: _1  and  _5
REMARK    2  A    between atoms: _5  and  _6
REMARK    3  A    between atoms: _5  and  _8
REMARK    4  A    between atoms: _8  and  _9
REMARK    5  A    between atoms: _12  and  _14
REMARK    6  A    between atoms: _14  and  _15
REMARK    7  A    between atoms: _14  and  _17
REMARK    8  A    between atoms: _20  and  _22
REMARK    9  A    between atoms: _22  and  _23
REMARK   10  A    between atoms: _22  and  _25
REMARK   11  A    between atoms: _27  and  _29
REMARK   12  A    between atoms: _29  and  _30
REMARK   13  A    between atoms: _29  and  _32
REMARK   14  A    between atoms: _32  and  _33
REMARK   15  A    between atoms: _38  and  _40
REMARK   16  A    between atoms: _40  and  _41
REMARK   17  A    between atoms: _44  and  _46
REMARK   18  A    between atoms: _46  and  _47
REMARK   19  A    between atoms: _46  and  _49
REMARK   20  A    between atoms: _49  and  _50
REMARK   21  A    between atoms: _50  and  _51
REMARK   22  A    between atoms: _56  and  _58
REMARK   23  A    between atoms: _58  and  _59
REMARK   24  A    between atoms: _58  and  _61
REMARK   25  A    between atoms: _64  and  _66
REMARK   26  A    between atoms: _66  and  _67
REMARK   27  A    between atoms: _66  and  _69
REMARK   28  A    between atoms: _69  and  _70
REMARK   29  A    between atoms: _73  and  _75
REMARK   30  A    between atoms: _75  and  _76
REMARK   31  A    between atoms: _75  and  _78
REMARK   32  A    between atoms: _78  and  _79
REMARK   33  A    between atoms: _84  and  _86
REMARK   34  A    between atoms: _86  and  _87
REMARK   35  A    between atoms: _86  and  _89
REMARK   36  A    between atoms: _89  and  _90
REMARK   37  A    between atoms: _93  and  _95
REMARK   38  A    between atoms: _95  and  _96
REMARK   39  A    between atoms: _95  and  _98
REMARK   40  A    between atoms: _98  and  _99
REMARK   41  A    between atoms: _102  and  _104
REMARK   42  A    between atoms: _104  and  _105
REMARK   43  A    between atoms: _104  and  _107
REMARK   44  A    between atoms: _107  and  _108
REMARK   45  A    between atoms: _108  and  _109
REMARK   46  A    between atoms: _109  and  _110
REMARK   47  A    between atoms: _110  and  _111
REMARK   48  A    between atoms: _115  and  _117
REMARK   49  A    between atoms: _117  and  _118
REMARK   50  A    between atoms: _117  and  _120
REMARK   51  A    between atoms: _120  and  _121
REMARK   52  A    between atoms: _126  and  _127
REMARK   53  A    between atoms: _129  and  _131
REMARK   54  A    between atoms: _131  and  _132
REMARK   55  A    between atoms: _131  and  _134
REMARK   56  A    between atoms: _134  and  _135
REMARK   57  A    between atoms: _140  and  _142
REMARK   58  A    between atoms: _142  and  _143
REMARK   59  A    between atoms: _142  and  _145
REMARK   60  A    between atoms: _145  and  _146
REMARK   61  A    between atoms: _149  and  _151
REMARK   62  A    between atoms: _151  and  _152
REMARK   63  A    between atoms: _154  and  _156
REMARK   64  A    between atoms: _156  and  _157
REMARK   65  A    between atoms: _160  and  _162
REMARK   66  A    between atoms: _162  and  _163
REMARK   67  A    between atoms: _162  and  _165
REMARK   68  A    between atoms: _165  and  _166
REMARK   69  A    between atoms: _171  and  _172
REMARK   70  A    between atoms: _174  and  _176
REMARK   71  A    between atoms: _176  and  _177
REMARK   72  A    between atoms: _176  and  _179
REMARK   73  A    between atoms: _179  and  _180
REMARK   74  A    between atoms: _183  and  _185
REMARK   75  A    between atoms: _185  and  _186
REMARK   76  A    between atoms: _185  and  _188
REMARK   77  A    between atoms: _191  and  _193
REMARK   78  A    between atoms: _193  and  _194
REMARK   79  A    between atoms: _193  and  _196
REMARK   80  A    between atoms: _196  and  _197
REMARK   81  A    between atoms: _197  and  _198
REMARK   82  A    between atoms: _198  and  _199
REMARK   83  A    between atoms: _208  and  _210
REMARK   84  A    between atoms: _210  and  _211
REMARK   85  A    between atoms: _210  and  _213
REMARK   86  A    between atoms: _213  and  _214
REMARK   87  A    between atoms: _217  and  _219
REMARK   88  A    between atoms: _219  and  _220
REMARK   89  A    between atoms: _219  and  _222
REMARK   90  A    between atoms: _225  and  _227
REMARK   91  A    between atoms: _227  and  _228
REMARK   92  A    between atoms: _231  and  _233
REMARK   93  A    between atoms: _233  and  _234
REMARK   94  A    between atoms: _236  and  _238
REMARK   95  A    between atoms: _238  and  _239
REMARK   96  A    between atoms: _238  and  _241
REMARK   97  A    between atoms: _241  and  _242
REMARK   98  A    between atoms: _247  and  _249
REMARK   99  A    between atoms: _249  and  _250
REMARK  100  A    between atoms: _249  and  _252
REMARK  101  A    between atoms: _252  and  _253
REMARK  102  A    between atoms: _253  and  _254
REMARK  103  A    between atoms: _254  and  _255
REMARK  104  A    between atoms: _264  and  _266
REMARK  105  A    between atoms: _266  and  _267
REMARK  106  A    between atoms: _266  and  _269
REMARK  107  A    between atoms: _269  and  _270
REMARK  108  A    between atoms: _273  and  _275
REMARK  109  A    between atoms: _275  and  _276
REMARK  110  A    between atoms: _275  and  _278
REMARK  111  A    between atoms: _278  and  _279
REMARK  112  A    between atoms: _281  and  _283
REMARK  113  A    between atoms: _283  and  _284
REMARK  114  A    between atoms: _283  and  _286
REMARK  115  A    between atoms: _286  and  _287
REMARK  116  A    between atoms: _287  and  _390
REMARK  117  A    between atoms: _288  and  _290
REMARK  118  A    between atoms: _290  and  _291
REMARK  119  A    between atoms: _290  and  _293
REMARK  120  A    between atoms: _293  and  _294
REMARK  121  A    between atoms: _294  and  _295
REMARK  122  A    between atoms: _300  and  _302
REMARK  123  A    between atoms: _302  and  _303
REMARK  124  A    between atoms: _305  and  _307
REMARK  125  A    between atoms: _307  and  _308
REMARK  126  A    between atoms: _307  and  _310
REMARK  127  A    between atoms: _310  and  _311
REMARK  128  A    between atoms: _314  and  _316
REMARK  129  A    between atoms: _316  and  _317
REMARK  130  A    between atoms: _316  and  _319
REMARK  131  A    between atoms: _319  and  _320
REMARK  132  A    between atoms: _322  and  _324
REMARK  133  A    between atoms: _324  and  _325
REMARK  134  A    between atoms: _327  and  _329
REMARK  135  A    between atoms: _329  and  _330
REMARK  136  A    between atoms: _332  and  _334
REMARK  137  A    between atoms: _334  and  _335
REMARK  138  A    between atoms: _334  and  _337
REMARK  139  A    between atoms: _340  and  _342
REMARK  140  A    between atoms: _342  and  _343
REMARK  141  A    between atoms: _342  and  _345
REMARK  142  A    between atoms: _345  and  _346
REMARK  143  A    between atoms: _348  and  _350
REMARK  144  A    between atoms: _350  and  _351
REMARK  145  A    between atoms: _350  and  _353
REMARK  146  A    between atoms: _353  and  _354
REMARK  147  A    between atoms: _364  and  _366
REMARK  148  A    between atoms: _366  and  _367
REMARK  149  A    between atoms: _369  and  _371
REMARK  150  A    between atoms: _371  and  _372
REMARK  151  A    between atoms: _371  and  _374
REMARK  152  A    between atoms: _374  and  _375
REMARK  153  A    between atoms: _375  and  _376
REMARK  154  A    between atoms: _379  and  _381
REMARK  155  A    between atoms: _381  and  _382
REMARK  156  A    between atoms: _384  and  _386
REMARK  157  A    between atoms: _386  and  _387
REMARK  158  A    between atoms: _386  and  _389
REMARK  159  A    between atoms: _389  and  _390
REMARK  160  A    between atoms: _391  and  _393
REMARK  161  A    between atoms: _393  and  _394
REMARK  162  A    between atoms: _397  and  _399
REMARK  163  A    between atoms: _399  and  _400
REMARK  164  A    between atoms: _399  and  _402
REMARK  165  A    between atoms: _402  and  _403
REMARK  166  A    between atoms: _403  and  _404
REMARK  167  A    between atoms: _409  and  _411
REMARK  168  A    between atoms: _411  and  _412
REMARK  169  A    between atoms: _411  and  _414
REMARK  170  A    between atoms: _414  and  _415
REMARK  171  A    between atoms: _420  and  _422
REMARK  172  A    between atoms: _422  and  _423
REMARK  173  A    between atoms: _422  and  _425
REMARK  174  A    between atoms: _425  and  _426
REMARK  175  A    between atoms: _426  and  _427
REMARK  176  A    between atoms: _427  and  _428
REMARK  177  A    between atoms: _438  and  _439
REMARK  178  A    between atoms: _444  and  _446
REMARK  179  A    between atoms: _446  and  _447
REMARK  180  A    between atoms: _449  and  _451
REMARK  181  A    between atoms: _451  and  _452
REMARK  182  A    between atoms: _451  and  _454
REMARK  183  A    between atoms: _454  and  _455
REMARK  184  A    between atoms: _458  and  _460
REMARK  185  A    between atoms: _460  and  _461
REMARK  186  A    between atoms: _460  and  _463
REMARK  187  A    between atoms: _463  and  _464
REMARK  188  A    between atoms: _469  and  _470
REMARK  189  A    between atoms: _472  and  _474
REMARK  190  A    between atoms: _474  and  _475
REMARK  191  A    between atoms: _478  and  _479
REMARK  192  A    between atoms: _484  and  _486
REMARK  193  A    between atoms: _486  and  _487
REMARK  194  A    between atoms: _486  and  _489
REMARK  195  A    between atoms: _489  and  _490
REMARK  196  A    between atoms: _493  and  _495
REMARK  197  A    between atoms: _495  and  _496
REMARK  198  A    between atoms: _495  and  _498
REMARK  199  A    between atoms: _501  and  _503
REMARK  200  A    between atoms: _503  and  _504
REMARK  201  A    between atoms: _503  and  _506
REMARK  202  A    between atoms: _506  and  _507
REMARK  203  A    between atoms: _513  and  _515
REMARK  204  A    between atoms: _515  and  _516
REMARK  205  A    between atoms: _515  and  _518
REMARK  206  A    between atoms: _518  and  _519
REMARK  207  A    between atoms: _524  and  _525
REMARK  208  A    between atoms: _527  and  _529
REMARK  209  A    between atoms: _529  and  _530
REMARK  210  A    between atoms: _529  and  _532
REMARK  211  A    between atoms: _532  and  _533
REMARK  212  A    between atoms: _536  and  _538
REMARK  213  A    between atoms: _538  and  _539
REMARK  214  A    between atoms: _542  and  _544
REMARK  215  A    between atoms: _544  and  _545
REMARK  216  A    between atoms: _544  and  _547
REMARK  217  A    between atoms: _547  and  _548
REMARK  218  A    between atoms: _548  and  _549
REMARK  219  A    between atoms: _554  and  _556
REMARK  220  A    between atoms: _556  and  _557
REMARK  221  A    between atoms: _556  and  _559
REMARK  222  A    between atoms: _559  and  _560
REMARK                            x       y       z     vdW  Elec       q    Type
REMARK                         _______ _______ _______ _____ _____    ______ ____
ROOT
ATOM      1  O   HOH     1      26.441  74.300  87.714  0.00  0.00    +0.000 OA
ENDROOT
TORSDOF 0
REMARK  Name = ../refined-set-2016/2za5/2za5_pocket.pdb
REMARK  222 active torsions:
REMARK  status: ('A' for Active; 'I' for Inactive)
REMARK    1  A    between atoms: _1  and  _5
REMARK    2  A    between atoms: _5  and  _6
REMARK    3  A    between atoms: _5  and  _8
REMARK    4  A    between atoms: _8  and  _9
REMARK    5  A    between atoms: _12  and  _14
REMARK    6  A    between atoms: _14  and  _15
REMARK    7  A    between atoms: _14  and  _17
REMARK    8  A    between atoms: _20  and  _22
REMARK    9  A    between atoms: _22  and  _23
REMARK   10  A    between atoms: _22  and  _25
REMARK   11  A    between atoms: _27  and  _29
REMARK   12  A    between atoms: _29  and  _30
REMARK   13  A    between atoms: _29  and  _32
REMARK   14  A    between atoms: _32  and  _33
REMARK   15  A    between atoms: _38  and  _40
REMARK   16  A    between atoms: _40  and  _41
REMARK   17  A    between atoms: _44  and  _46
REMARK   18  A    between atoms: _46  and  _47
REMARK   19  A    between atoms: _46  and  _49
REMARK   20  A    between atoms: _49  and  _50
REMARK   21  A    between atoms: _50  and  _51
REMARK   22  A    between atoms: _56  and  _58
REMARK   23  A    between atoms: _58  and  _59
REMARK   24  A    between atoms: _58  and  _61
REMARK   25  A    between atoms: _64  and  _66
REMARK   26  A    between atoms: _66  and  _67
REMARK   27  A    between atoms: _66  and  _69
REMARK   28  A    between atoms: _69  and  _70
REMARK   29  A    between atoms: _73  and  _75
REMARK   30  A    between atoms: _75  and  _76
REMARK   31  A    between atoms: _75  and  _78
REMARK   32  A    between atoms: _78  and  _79
REMARK   33  A    between atoms: _84  and  _86
REMARK   34  A    between atoms: _86  and  _87
REMARK   35  A    between atoms: _86  and  _89
REMARK   36  A    between atoms: _89  and  _90
REMARK   37  A    between atoms: _93  and  _95
REMARK   38  A    between atoms: _95  and  _96
REMARK   39  A    between atoms: _95  and  _98
REMARK   40  A    between atoms: _98  and  _99
REMARK   41  A    between atoms: _102  and  _104
REMARK   42  A    between atoms: _104  and  _105
REMARK   43  A    between atoms: _104  and  _107
REMARK   44  A    between atoms: _107  and  _108
REMARK   45  A    between atoms: _108  and  _109
REMARK   46  A    between atoms: _109  and  _110
REMARK   47  A    between atoms: _110  and  _111
REMARK   48  A    between atoms: _115  and  _117
REMARK   49  A    between atoms: _117  and  _118
REMARK   50  A    between atoms: _117  and  _120
REMARK   51  A    between atoms: _120  and  _121
REMARK   52  A    between atoms: _126  and  _127
REMARK   53  A    between atoms: _129  and  _131
REMARK   54  A    between atoms: _131  and  _132
REMARK   55  A    between atoms: _131  and  _134
REMARK   56  A    between atoms: _134  and  _135
REMARK   57  A    between atoms: _140  and  _142
REMARK   58  A    between atoms: _142  and  _143
REMARK   59  A    between atoms: _142  and  _145
REMARK   60  A    between atoms: _145  and  _146
REMARK   61  A    between atoms: _149  and  _151
REMARK   62  A    between atoms: _151  and  _152
REMARK   63  A    between atoms: _154  and  _156
REMARK   64  A    between atoms: _156  and  _157
REMARK   65  A    between atoms: _160  and  _162
REMARK   66  A    between atoms: _162  and  _163
REMARK   67  A    between atoms: _162  and  _165
REMARK   68  A    between atoms: _165  and  _166
REMARK   69  A    between atoms: _171  and  _172
REMARK   70  A    between atoms: _174  and  _176
REMARK   71  A    between atoms: _176  and  _177
REMARK   72  A    between atoms: _176  and  _179
REMARK   73  A    between atoms: _179  and  _180
REMARK   74  A    between atoms: _183  and  _185
REMARK   75  A    between atoms: _185  and  _186
REMARK   76  A    between atoms: _185  and  _188
REMARK   77  A    between atoms: _191  and  _193
REMARK   78  A    between atoms: _193  and  _194
REMARK   79  A    between atoms: _193  and  _196
REMARK   80  A    between atoms: _196  and  _197
REMARK   81  A    between atoms: _197  and  _198
REMARK   82  A    between atoms: _198  and  _199
REMARK   83  A    between atoms: _208  and  _210
REMARK   84  A    between atoms: _210  and  _211
REMARK   85  A    between atoms: _210  and  _213
REMARK   86  A    between atoms: _213  and  _214
REMARK   87  A    between atoms: _217  and  _219
REMARK   88  A    between atoms: _219  and  _220
REMARK   89  A    between atoms: _219  and  _222
REMARK   90  A    between atoms: _225  and  _227
REMARK   91  A    between atoms: _227  and  _228
REMARK   92  A    between atoms: _231  and  _233
REMARK   93  A    between atoms: _233  and  _234
REMARK   94  A    between atoms: _236  and  _238
REMARK   95  A    between atoms: _238  and  _239
REMARK   96  A    between atoms: _238  and  _241
REMARK   97  A    between atoms: _241  and  _242
REMARK   98  A    between atoms: _247  and  _249
REMARK   99  A    between atoms: _249  and  _250
REMARK  100  A    between atoms: _249  and  _252
REMARK  101  A    between atoms: _252  and  _253
REMARK  102  A    between atoms: _253  and  _254
REMARK  103  A    between atoms: _254  and  _255
REMARK  104  A    between atoms: _264  and  _266
REMARK  105  A    between atoms: _266  and  _267
REMARK  106  A    between atoms: _266  and  _269
REMARK  107  A    between atoms: _269  and  _270
REMARK  108  A    between atoms: _273  and  _275
REMARK  109  A    between atoms: _275  and  _276
REMARK  110  A    between atoms: _275  and  _278
REMARK  111  A    between atoms: _278  and  _279
REMARK  112  A    between atoms: _281  and  _283
REMARK  113  A    between atoms: _283  and  _284
REMARK  114  A    between atoms: _283  and  _286
REMARK  115  A    between atoms: _286  and  _287
REMARK  116  A    between atoms: _287  and  _390
REMARK  117  A    between atoms: _288  and  _290
REMARK  118  A    between atoms: _290  and  _291
REMARK  119  A    between atoms: _290  and  _293
REMARK  120  A    between atoms: _293  and  _294
REMARK  121  A    between atoms: _294  and  _295
REMARK  122  A    between atoms: _300  and  _302
REMARK  123  A    between atoms: _302  and  _303
REMARK  124  A    between atoms: _305  and  _307
REMARK  125  A    between atoms: _307  and  _308
REMARK  126  A    between atoms: _307  and  _310
REMARK  127  A    between atoms: _310  and  _311
REMARK  128  A    between atoms: _314  and  _316
REMARK  129  A    between atoms: _316  and  _317
REMARK  130  A    between atoms: _316  and  _319
REMARK  131  A    between atoms: _319  and  _320
REMARK  132  A    between atoms: _322  and  _324
REMARK  133  A    between atoms: _324  and  _325
REMARK  134  A    between atoms: _327  and  _329
REMARK  135  A    between atoms: _329  and  _330
REMARK  136  A    between atoms: _332  and  _334
REMARK  137  A    between atoms: _334  and  _335
REMARK  138  A    between atoms: _334  and  _337
REMARK  139  A    between atoms: _340  and  _342
REMARK  140  A    between atoms: _342  and  _343
REMARK  141  A    between atoms: _342  and  _345
REMARK  142  A    between atoms: _345  and  _346
REMARK  143  A    between atoms: _348  and  _350
REMARK  144  A    between atoms: _350  and  _351
REMARK  145  A    between atoms: _350  and  _353
REMARK  146  A    between atoms: _353  and  _354
REMARK  147  A    between atoms: _364  and  _366
REMARK  148  A    between atoms: _366  and  _367
REMARK  149  A    between atoms: _369  and  _371
REMARK  150  A    between atoms: _371  and  _372
REMARK  151  A    between atoms: _371  and  _374
REMARK  152  A    between atoms: _374  and  _375
REMARK  153  A    between atoms: _375  and  _376
REMARK  154  A    between atoms: _379  and  _381
REMARK  155  A    between atoms: _381  and  _382
REMARK  156  A    between atoms: _384  and  _386
REMARK  157  A    between atoms: _386  and  _387
REMARK  158  A    between atoms: _386  and  _389
REMARK  159  A    between atoms: _389  and  _390
REMARK  160  A    between atoms: _391  and  _393
REMARK  161  A    between atoms: _393  and  _394
REMARK  162  A    between atoms: _397  and  _399
REMARK  163  A    between atoms: _399  and  _400
REMARK  164  A    between atoms: _399  and  _402
REMARK  165  A    between atoms: _402  and  _403
REMARK  166  A    between atoms: _403  and  _404
REMARK  167  A    between atoms: _409  and  _411
REMARK  168  A    between atoms: _411  and  _412
REMARK  169  A    between atoms: _411  and  _414
REMARK  170  A    between atoms: _414  and  _415
REMARK  171  A    between atoms: _420  and  _422
REMARK  172  A    between atoms: _422  and  _423
REMARK  173  A    between atoms: _422  and  _425
REMARK  174  A    between atoms: _425  and  _426
REMARK  175  A    between atoms: _426  and  _427
REMARK  176  A    between atoms: _427  and  _428
REMARK  177  A    between atoms: _438  and  _439
REMARK  178  A    between atoms: _444  and  _446
REMARK  179  A    between atoms: _446  and  _447
REMARK  180  A    between atoms: _449  and  _451
REMARK  181  A    between atoms: _451  and  _452
REMARK  182  A    between atoms: _451  and  _454
REMARK  183  A    between atoms: _454  and  _455
REMARK  184  A    between atoms: _458  and  _460
REMARK  185  A    between atoms: _460  and  _461
REMARK  186  A    between atoms: _460  and  _463
REMARK  187  A    between atoms: _463  and  _464
REMARK  188  A    between atoms: _469  and  _470
REMARK  189  A    between atoms: _472  and  _474
REMARK  190  A    between atoms: _474  and  _475
REMARK  191  A    between atoms: _478  and  _479
REMARK  192  A    between atoms: _484  and  _486
REMARK  193  A    between atoms: _486  and  _487
REMARK  194  A    between atoms: _486  and  _489
REMARK  195  A    between atoms: _489  and  _490
REMARK  196  A    between atoms: _493  and  _495
REMARK  197  A    between atoms: _495  and  _496
REMARK  198  A    between atoms: _495  and  _498
REMARK  199  A    between atoms: _501  and  _503
REMARK  200  A    between atoms: _503  and  _504
REMARK  201  A    between atoms: _503  and  _506
REMARK  202  A    between atoms: _506  and  _507
REMARK  203  A    between atoms: _513  and  _515
REMARK  204  A    between atoms: _515  and  _516
REMARK  205  A    between atoms: _515  and  _518
REMARK  206  A    between atoms: _518  and  _519
REMARK  207  A    between atoms: _524  and  _525
REMARK  208  A    between atoms: _527  and  _529
REMARK  209  A    between atoms: _529  and  _530
REMARK  210  A    between atoms: _529  and  _532
REMARK  211  A    between atoms: _532  and  _533
REMARK  212  A    between atoms: _536  and  _538
REMARK  213  A    between atoms: _538  and  _539
REMARK  214  A    between atoms: _542  and  _544
REMARK  215  A    between atoms: _544  and  _545
REMARK  216  A    between atoms: _544  and  _547
REMARK  217  A    between atoms: _547  and  _548
REMARK  218  A    between atoms: _548  and  _549
REMARK  219  A    between atoms: _554  and  _556
REMARK  220  A    between atoms: _556  and  _557
REMARK  221  A    between atoms: _556  and  _559
REMARK  222  A    between atoms: _559  and  _560
REMARK                            x       y       z     vdW  Elec       q    Type
REMARK                         _______ _______ _______ _____ _____    ______ ____
ROOT
ATOM      1  O   HOH     1      15.620  76.233  78.956  0.00  0.00    +0.000 OA
ENDROOT
TORSDOF 0
REMARK  Name = ../refined-set-2016/2za5/2za5_pocket.pdb
REMARK  222 active torsions:
REMARK  status: ('A' for Active; 'I' for Inactive)
REMARK    1  A    between atoms: _1  and  _5
REMARK    2  A    between atoms: _5  and  _6
REMARK    3  A    between atoms: _5  and  _8
REMARK    4  A    between atoms: _8  and  _9
REMARK    5  A    between atoms: _12  and  _14
REMARK    6  A    between atoms: _14  and  _15
REMARK    7  A    between atoms: _14  and  _17
REMARK    8  A    between atoms: _20  and  _22
REMARK    9  A    between atoms: _22  and  _23
REMARK   10  A    between atoms: _22  and  _25
REMARK   11  A    between atoms: _27  and  _29
REMARK   12  A    between atoms: _29  and  _30
REMARK   13  A    between atoms: _29  and  _32
REMARK   14  A    between atoms: _32  and  _33
REMARK   15  A    between atoms: _38  and  _40
REMARK   16  A    between atoms: _40  and  _41
REMARK   17  A    between atoms: _44  and  _46
REMARK   18  A    between atoms: _46  and  _47
REMARK   19  A    between atoms: _46  and  _49
REMARK   20  A    between atoms: _49  and  _50
REMARK   21  A    between atoms: _50  and  _51
REMARK   22  A    between atoms: _56  and  _58
REMARK   23  A    between atoms: _58  and  _59
REMARK   24  A    between atoms: _58  and  _61
REMARK   25  A    between atoms: _64  and  _66
REMARK   26  A    between atoms: _66  and  _67
REMARK   27  A    between atoms: _66  and  _69
REMARK   28  A    between atoms: _69  and  _70
REMARK   29  A    between atoms: _73  and  _75
REMARK   30  A    between atoms: _75  and  _76
REMARK   31  A    between atoms: _75  and  _78
REMARK   32  A    between atoms: _78  and  _79
REMARK   33  A    between atoms: _84  and  _86
REMARK   34  A    between atoms: _86  and  _87
REMARK   35  A    between atoms: _86  and  _89
REMARK   36  A    between atoms: _89  and  _90
REMARK   37  A    between atoms: _93  and  _95
REMARK   38  A    between atoms: _95  and  _96
REMARK   39  A    between atoms: _95  and  _98
REMARK   40  A    between atoms: _98  and  _99
REMARK   41  A    between atoms: _102  and  _104
REMARK   42  A    between atoms: _104  and  _105
REMARK   43  A    between atoms: _104  and  _107
REMARK   44  A    between atoms: _107  and  _108
REMARK   45  A    between atoms: _108  and  _109
REMARK   46  A    between atoms: _109  and  _110
REMARK   47  A    between atoms: _110  and  _111
REMARK   48  A    between atoms: _115  and  _117
REMARK   49  A    between atoms: _117  and  _118
REMARK   50  A    between atoms: _117  and  _120
REMARK   51  A    between atoms: _120  and  _121
REMARK   52  A    between atoms: _126  and  _127
REMARK   53  A    between atoms: _129  and  _131
REMARK   54  A    between atoms: _131  and  _132
REMARK   55  A    between atoms: _131  and  _134
REMARK   56  A    between atoms: _134  and  _135
REMARK   57  A    between atoms: _140  and  _142
REMARK   58  A    between atoms: _142  and  _143
REMARK   59  A    between atoms: _142  and  _145
REMARK   60  A    between atoms: _145  and  _146
REMARK   61  A    between atoms: _149  and  _151
REMARK   62  A    between atoms: _151  and  _152
REMARK   63  A    between atoms: _154  and  _156
REMARK   64  A    between atoms: _156  and  _157
REMARK   65  A    between atoms: _160  and  _162
REMARK   66  A    between atoms: _162  and  _163
REMARK   67  A    between atoms: _162  and  _165
REMARK   68  A    between atoms: _165  and  _166
REMARK   69  A    between atoms: _171  and  _172
REMARK   70  A    between atoms: _174  and  _176
REMARK   71  A    between atoms: _176  and  _177
REMARK   72  A    between atoms: _176  and  _179
REMARK   73  A    between atoms: _179  and  _180
REMARK   74  A    between atoms: _183  and  _185
REMARK   75  A    between atoms: _185  and  _186
REMARK   76  A    between atoms: _185  and  _188
REMARK   77  A    between atoms: _191  and  _193
REMARK   78  A    between atoms: _193  and  _194
REMARK   79  A    between atoms: _193  and  _196
REMARK   80  A    between atoms: _196  and  _197
REMARK   81  A    between atoms: _197  and  _198
REMARK   82  A    between atoms: _198  and  _199
REMARK   83  A    between atoms: _208  and  _210
REMARK   84  A    between atoms: _210  and  _211
REMARK   85  A    between atoms: _210  and  _213
REMARK   86  A    between atoms: _213  and  _214
REMARK   87  A    between atoms: _217  and  _219
REMARK   88  A    between atoms: _219  and  _220
REMARK   89  A    between atoms: _219  and  _222
REMARK   90  A    between atoms: _225  and  _227
REMARK   91  A    between atoms: _227  and  _228
REMARK   92  A    between atoms: _231  and  _233
REMARK   93  A    between atoms: _233  and  _234
REMARK   94  A    between atoms: _236  and  _238
REMARK   95  A    between atoms: _238  and  _239
REMARK   96  A    between atoms: _238  and  _241
REMARK   97  A    between atoms: _241  and  _242
REMARK   98  A    between atoms: _247  and  _249
REMARK   99  A    between atoms: _249  and  _250
REMARK  100  A    between atoms: _249  and  _252
REMARK  101  A    between atoms: _252  and  _253
REMARK  102  A    between atoms: _253  and  _254
REMARK  103  A    between atoms: _254  and  _255
REMARK  104  A    between atoms: _264  and  _266
REMARK  105  A    between atoms: _266  and  _267
REMARK  106  A    between atoms: _266  and  _269
REMARK  107  A    between atoms: _269  and  _270
REMARK  108  A    between atoms: _273  and  _275
REMARK  109  A    between atoms: _275  and  _276
REMARK  110  A    between atoms: _275  and  _278
REMARK  111  A    between atoms: _278  and  _279
REMARK  112  A    between atoms: _281  and  _283
REMARK  113  A    between atoms: _283  and  _284
REMARK  114  A    between atoms: _283  and  _286
REMARK  115  A    between atoms: _286  and  _287
REMARK  116  A    between atoms: _287  and  _390
REMARK  117  A    between atoms: _288  and  _290
REMARK  118  A    between atoms: _290  and  _291
REMARK  119  A    between atoms: _290  and  _293
REMARK  120  A    between atoms: _293  and  _294
REMARK  121  A    between atoms: _294  and  _295
REMARK  122  A    between atoms: _300  and  _302
REMARK  123  A    between atoms: _302  and  _303
REMARK  124  A    between atoms: _305  and  _307
REMARK  125  A    between atoms: _307  and  _308
REMARK  126  A    between atoms: _307  and  _310
REMARK  127  A    between atoms: _310  and  _311
REMARK  128  A    between atoms: _314  and  _316
REMARK  129  A    between atoms: _316  and  _317
REMARK  130  A    between atoms: _316  and  _319
REMARK  131  A    between atoms: _319  and  _320
REMARK  132  A    between atoms: _322  and  _324
REMARK  133  A    between atoms: _324  and  _325
REMARK  134  A    between atoms: _327  and  _329
REMARK  135  A    between atoms: _329  and  _330
REMARK  136  A    between atoms: _332  and  _334
REMARK  137  A    between atoms: _334  and  _335
REMARK  138  A    between atoms: _334  and  _337
REMARK  139  A    between atoms: _340  and  _342
REMARK  140  A    between atoms: _342  and  _343
REMARK  141  A    between atoms: _342  and  _345
REMARK  142  A    between atoms: _345  and  _346
REMARK  143  A    between atoms: _348  and  _350
REMARK  144  A    between atoms: _350  and  _351
REMARK  145  A    between atoms: _350  and  _353
REMARK  146  A    between atoms: _353  and  _354
REMARK  147  A    between atoms: _364  and  _366
REMARK  148  A    between atoms: _366  and  _367
REMARK  149  A    between atoms: _369  and  _371
REMARK  150  A    between atoms: _371  and  _372
REMARK  151  A    between atoms: _371  and  _374
REMARK  152  A    between atoms: _374  and  _375
REMARK  153  A    between atoms: _375  and  _376
REMARK  154  A    between atoms: _379  and  _381
REMARK  155  A    between atoms: _381  and  _382
REMARK  156  A    between atoms: _384  and  _386
REMARK  157  A    between atoms: _386  and  _387
REMARK  158  A    between atoms: _386  and  _389
REMARK  159  A    between atoms: _389  and  _390
REMARK  160  A    between atoms: _391  and  _393
REMARK  161  A    between atoms: _393  and  _394
REMARK  162  A    between atoms: _397  and  _399
REMARK  163  A    between atoms: _399  and  _400
REMARK  164  A    between atoms: _399  and  _402
REMARK  165  A    between atoms: _402  and  _403
REMARK  166  A    between atoms: _403  and  _404
REMARK  167  A    between atoms: _409  and  _411
REMARK  168  A    between atoms: _411  and  _412
REMARK  169  A    between atoms: _411  and  _414
REMARK  170  A    between atoms: _414  and  _415
REMARK  171  A    between atoms: _420  and  _422
REMARK  172  A    between atoms: _422  and  _423
REMARK  173  A    between atoms: _422  and  _425
REMARK  174  A    between atoms: _425  and  _426
REMARK  175  A    between atoms: _426  and  _427
REMARK  176  A    between atoms: _427  and  _428
REMARK  177  A    between atoms: _438  and  _439
REMARK  178  A    between atoms: _444  and  _446
REMARK  179  A    between atoms: _446  and  _447
REMARK  180  A    between atoms: _449  and  _451
REMARK  181  A    between atoms: _451  and  _452
REMARK  182  A    between atoms: _451  and  _454
REMARK  183  A    between atoms: _454  and  _455
REMARK  184  A    between atoms: _458  and  _460
REMARK  185  A    between atoms: _460  and  _461
REMARK  186  A    between atoms: _460  and  _463
REMARK  187  A    between atoms: _463  and  _464
REMARK  188  A    between atoms: _469  and  _470
REMARK  189  A    between atoms: _472  and  _474
REMARK  190  A    between atoms: _474  and  _475
REMARK  191  A    between atoms: _478  and  _479
REMARK  192  A    between atoms: _484  and  _486
REMARK  193  A    between atoms: _486  and  _487
REMARK  194  A    between atoms: _486  and  _489
REMARK  195  A    between atoms: _489  and  _490
REMARK  196  A    between atoms: _493  and  _495
REMARK  197  A    between atoms: _495  and  _496
REMARK  198  A    between atoms: _495  and  _498
REMARK  199  A    between atoms: _501  and  _503
REMARK  200  A    between atoms: _503  and  _504
REMARK  201  A    between atoms: _503  and  _506
REMARK  202  A    between atoms: _506  and  _507
REMARK  203  A    between atoms: _513  and  _515
REMARK  204  A    between atoms: _515  and  _516
REMARK  205  A    between atoms: _515  and  _518
REMARK  206  A    between atoms: _518  and  _519
REMARK  207  A    between atoms: _524  and  _525
REMARK  208  A    between atoms: _527  and  _529
REMARK  209  A    between atoms: _529  and  _530
REMARK  210  A    between atoms: _529  and  _532
REMARK  211  A    between atoms: _532  and  _533
REMARK  212  A    between atoms: _536  and  _538
REMARK  213  A    between atoms: _538  and  _539
REMARK  214  A    between atoms: _542  and  _544
REMARK  215  A    between atoms: _544  and  _545
REMARK  216  A    between atoms: _544  and  _547
REMARK  217  A    between atoms: _547  and  _548
REMARK  218  A    between atoms: _548  and  _549
REMARK  219  A    between atoms: _554  and  _556
REMARK  220  A    between atoms: _556  and  _557
REMARK  221  A    between atoms: _556  and  _559
REMARK  222  A    between atoms: _559  and  _560
REMARK                            x       y       z     vdW  Elec       q    Type
REMARK                         _______ _______ _______ _____ _____    ______ ____
ROOT
ATOM      1  O   HOH     1      30.090  69.191  89.070  0.00  0.00    +0.000 OA
ENDROOT
TORSDOF 0
REMARK  Name = ../refined-set-2016/2za5/2za5_pocket.pdb
REMARK  222 active torsions:
REMARK  status: ('A' for Active; 'I' for Inactive)
REMARK    1  A    between atoms: _1  and  _5
REMARK    2  A    between atoms: _5  and  _6
REMARK    3  A    between atoms: _5  and  _8
REMARK    4  A    between atoms: _8  and  _9
REMARK    5  A    between atoms: _12  and  _14
REMARK    6  A    between atoms: _14  and  _15
REMARK    7  A    between atoms: _14  and  _17
REMARK    8  A    between atoms: _20  and  _22
REMARK    9  A    between atoms: _22  and  _23
REMARK   10  A    between atoms: _22  and  _25
REMARK   11  A    between atoms: _27  and  _29
REMARK   12  A    between atoms: _29  and  _30
REMARK   13  A    between atoms: _29  and  _32
REMARK   14  A    between atoms: _32  and  _33
REMARK   15  A    between atoms: _38  and  _40
REMARK   16  A    between atoms: _40  and  _41
REMARK   17  A    between atoms: _44  and  _46
REMARK   18  A    between atoms: _46  and  _47
REMARK   19  A    between atoms: _46  and  _49
REMARK   20  A    between atoms: _49  and  _50
REMARK   21  A    between atoms: _50  and  _51
REMARK   22  A    between atoms: _56  and  _58
REMARK   23  A    between atoms: _58  and  _59
REMARK   24  A    between atoms: _58  and  _61
REMARK   25  A    between atoms: _64  and  _66
REMARK   26  A    between atoms: _66  and  _67
REMARK   27  A    between atoms: _66  and  _69
REMARK   28  A    between atoms: _69  and  _70
REMARK   29  A    between atoms: _73  and  _75
REMARK   30  A    between atoms: _75  and  _76
REMARK   31  A    between atoms: _75  and  _78
REMARK   32  A    between atoms: _78  and  _79
REMARK   33  A    between atoms: _84  and  _86
REMARK   34  A    between atoms: _86  and  _87
REMARK   35  A    between atoms: _86  and  _89
REMARK   36  A    between atoms: _89  and  _90
REMARK   37  A    between atoms: _93  and  _95
REMARK   38  A    between atoms: _95  and  _96
REMARK   39  A    between atoms: _95  and  _98
REMARK   40  A    between atoms: _98  and  _99
REMARK   41  A    between atoms: _102  and  _104
REMARK   42  A    between atoms: _104  and  _105
REMARK   43  A    between atoms: _104  and  _107
REMARK   44  A    between atoms: _107  and  _108
REMARK   45  A    between atoms: _108  and  _109
REMARK   46  A    between atoms: _109  and  _110
REMARK   47  A    between atoms: _110  and  _111
REMARK   48  A    between atoms: _115  and  _117
REMARK   49  A    between atoms: _117  and  _118
REMARK   50  A    between atoms: _117  and  _120
REMARK   51  A    between atoms: _120  and  _121
REMARK   52  A    between atoms: _126  and  _127
REMARK   53  A    between atoms: _129  and  _131
REMARK   54  A    between atoms: _131  and  _132
REMARK   55  A    between atoms: _131  and  _134
REMARK   56  A    between atoms: _134  and  _135
REMARK   57  A    between atoms: _140  and  _142
REMARK   58  A    between atoms: _142  and  _143
REMARK   59  A    between atoms: _142  and  _145
REMARK   60  A    between atoms: _145  and  _146
REMARK   61  A    between atoms: _149  and  _151
REMARK   62  A    between atoms: _151  and  _152
REMARK   63  A    between atoms: _154  and  _156
REMARK   64  A    between atoms: _156  and  _157
REMARK   65  A    between atoms: _160  and  _162
REMARK   66  A    between atoms: _162  and  _163
REMARK   67  A    between atoms: _162  and  _165
REMARK   68  A    between atoms: _165  and  _166
REMARK   69  A    between atoms: _171  and  _172
REMARK   70  A    between atoms: _174  and  _176
REMARK   71  A    between atoms: _176  and  _177
REMARK   72  A    between atoms: _176  and  _179
REMARK   73  A    between atoms: _179  and  _180
REMARK   74  A    between atoms: _183  and  _185
REMARK   75  A    between atoms: _185  and  _186
REMARK   76  A    between atoms: _185  and  _188
REMARK   77  A    between atoms: _191  and  _193
REMARK   78  A    between atoms: _193  and  _194
REMARK   79  A    between atoms: _193  and  _196
REMARK   80  A    between atoms: _196  and  _197
REMARK   81  A    between atoms: _197  and  _198
REMARK   82  A    between atoms: _198  and  _199
REMARK   83  A    between atoms: _208  and  _210
REMARK   84  A    between atoms: _210  and  _211
REMARK   85  A    between atoms: _210  and  _213
REMARK   86  A    between atoms: _213  and  _214
REMARK   87  A    between atoms: _217  and  _219
REMARK   88  A    between atoms: _219  and  _220
REMARK   89  A    between atoms: _219  and  _222
REMARK   90  A    between atoms: _225  and  _227
REMARK   91  A    between atoms: _227  and  _228
REMARK   92  A    between atoms: _231  and  _233
REMARK   93  A    between atoms: _233  and  _234
REMARK   94  A    between atoms: _236  and  _238
REMARK   95  A    between atoms: _238  and  _239
REMARK   96  A    between atoms: _238  and  _241
REMARK   97  A    between atoms: _241  and  _242
REMARK   98  A    between atoms: _247  and  _249
REMARK   99  A    between atoms: _249  and  _250
REMARK  100  A    between atoms: _249  and  _252
REMARK  101  A    between atoms: _252  and  _253
REMARK  102  A    between atoms: _253  and  _254
REMARK  103  A    between atoms: _254  and  _255
REMARK  104  A    between atoms: _264  and  _266
REMARK  105  A    between atoms: _266  and  _267
REMARK  106  A    between atoms: _266  and  _269
REMARK  107  A    between atoms: _269  and  _270
REMARK  108  A    between atoms: _273  and  _275
REMARK  109  A    between atoms: _275  and  _276
REMARK  110  A    between atoms: _275  and  _278
REMARK  111  A    between atoms: _278  and  _279
REMARK  112  A    between atoms: _281  and  _283
REMARK  113  A    between atoms: _283  and  _284
REMARK  114  A    between atoms: _283  and  _286
REMARK  115  A    between atoms: _286  and  _287
REMARK  116  A    between atoms: _287  and  _390
REMARK  117  A    between atoms: _288  and  _290
REMARK  118  A    between atoms: _290  and  _291
REMARK  119  A    between atoms: _290  and  _293
REMARK  120  A    between atoms: _293  and  _294
REMARK  121  A    between atoms: _294  and  _295
REMARK  122  A    between atoms: _300  and  _302
REMARK  123  A    between atoms: _302  and  _303
REMARK  124  A    between atoms: _305  and  _307
REMARK  125  A    between atoms: _307  and  _308
REMARK  126  A    between atoms: _307  and  _310
REMARK  127  A    between atoms: _310  and  _311
REMARK  128  A    between atoms: _314  and  _316
REMARK  129  A    between atoms: _316  and  _317
REMARK  130  A    between atoms: _316  and  _319
REMARK  131  A    between atoms: _319  and  _320
REMARK  132  A    between atoms: _322  and  _324
REMARK  133  A    between atoms: _324  and  _325
REMARK  134  A    between atoms: _327  and  _329
REMARK  135  A    between atoms: _329  and  _330
REMARK  136  A    between atoms: _332  and  _334
REMARK  137  A    between atoms: _334  and  _335
REMARK  138  A    between atoms: _334  and  _337
REMARK  139  A    between atoms: _340  and  _342
REMARK  140  A    between atoms: _342  and  _343
REMARK  141  A    between atoms: _342  and  _345
REMARK  142  A    between atoms: _345  and  _346
REMARK  143  A    between atoms: _348  and  _350
REMARK  144  A    between atoms: _350  and  _351
REMARK  145  A    between atoms: _350  and  _353
REMARK  146  A    between atoms: _353  and  _354
REMARK  147  A    between atoms: _364  and  _366
REMARK  148  A    between atoms: _366  and  _367
REMARK  149  A    between atoms: _369  and  _371
REMARK  150  A    between atoms: _371  and  _372
REMARK  151  A    between atoms: _371  and  _374
REMARK  152  A    between atoms: _374  and  _375
REMARK  153  A    between atoms: _375  and  _376
REMARK  154  A    between atoms: _379  and  _381
REMARK  155  A    between atoms: _381  and  _382
REMARK  156  A    between atoms: _384  and  _386
REMARK  157  A    between atoms: _386  and  _387
REMARK  158  A    between atoms: _386  and  _389
REMARK  159  A    between atoms: _389  and  _390
REMARK  160  A    between atoms: _391  and  _393
REMARK  161  A    between atoms: _393  and  _394
REMARK  162  A    between atoms: _397  and  _399
REMARK  163  A    between atoms: _399  and  _400
REMARK  164  A    between atoms: _399  and  _402
REMARK  165  A    between atoms: _402  and  _403
REMARK  166  A    between atoms: _403  and  _404
REMARK  167  A    between atoms: _409  and  _411
REMARK  168  A    between atoms: _411  and  _412
REMARK  169  A    between atoms: _411  and  _414
REMARK  170  A    between atoms: _414  and  _415
REMARK  171  A    between atoms: _420  and  _422
REMARK  172  A    between atoms: _422  and  _423
REMARK  173  A    between atoms: _422  and  _425
REMARK  174  A    between atoms: _425  and  _426
REMARK  175  A    between atoms: _426  and  _427
REMARK  176  A    between atoms: _427  and  _428
REMARK  177  A    between atoms: _438  and  _439
REMARK  178  A    between atoms: _444  and  _446
REMARK  179  A    between atoms: _446  and  _447
REMARK  180  A    between atoms: _449  and  _451
REMARK  181  A    between atoms: _451  and  _452
REMARK  182  A    between atoms: _451  and  _454
REMARK  183  A    between atoms: _454  and  _455
REMARK  184  A    between atoms: _458  and  _460
REMARK  185  A    between atoms: _460  and  _461
REMARK  186  A    between atoms: _460  and  _463
REMARK  187  A    between atoms: _463  and  _464
REMARK  188  A    between atoms: _469  and  _470
REMARK  189  A    between atoms: _472  and  _474
REMARK  190  A    between atoms: _474  and  _475
REMARK  191  A    between atoms: _478  and  _479
REMARK  192  A    between atoms: _484  and  _486
REMARK  193  A    between atoms: _486  and  _487
REMARK  194  A    between atoms: _486  and  _489
REMARK  195  A    between atoms: _489  and  _490
REMARK  196  A    between atoms: _493  and  _495
REMARK  197  A    between atoms: _495  and  _496
REMARK  198  A    between atoms: _495  and  _498
REMARK  199  A    between atoms: _501  and  _503
REMARK  200  A    between atoms: _503  and  _504
REMARK  201  A    between atoms: _503  and  _506
REMARK  202  A    between atoms: _506  and  _507
REMARK  203  A    between atoms: _513  and  _515
REMARK  204  A    between atoms: _515  and  _516
REMARK  205  A    between atoms: _515  and  _518
REMARK  206  A    between atoms: _518  and  _519
REMARK  207  A    between atoms: _524  and  _525
REMARK  208  A    between atoms: _527  and  _529
REMARK  209  A    between atoms: _529  and  _530
REMARK  210  A    between atoms: _529  and  _532
REMARK  211  A    between atoms: _532  and  _533
REMARK  212  A    between atoms: _536  and  _538
REMARK  213  A    between atoms: _538  and  _539
REMARK  214  A    between atoms: _542  and  _544
REMARK  215  A    between atoms: _544  and  _545
REMARK  216  A    between atoms: _544  and  _547
REMARK  217  A    between atoms: _547  and  _548
REMARK  218  A    between atoms: _548  and  _549
REMARK  219  A    between atoms: _554  and  _556
REMARK  220  A    between atoms: _556  and  _557
REMARK  221  A    between atoms: _556  and  _559
REMARK  222  A    between atoms: _559  and  _560
REMARK                            x       y       z     vdW  Elec       q    Type
REMARK                         _______ _______ _______ _____ _____    ______ ____
ROOT
ATOM      1  O   HOH     1      23.164  77.568  76.755  0.00  0.00    +0.000 OA
ENDROOT
TORSDOF 0
REMARK  Name = ../refined-set-2016/2za5/2za5_pocket.pdb
REMARK  222 active torsions:
REMARK  status: ('A' for Active; 'I' for Inactive)
REMARK    1  A    between atoms: _1  and  _5
REMARK    2  A    between atoms: _5  and  _6
REMARK    3  A    between atoms: _5  and  _8
REMARK    4  A    between atoms: _8  and  _9
REMARK    5  A    between atoms: _12  and  _14
REMARK    6  A    between atoms: _14  and  _15
REMARK    7  A    between atoms: _14  and  _17
REMARK    8  A    between atoms: _20  and  _22
REMARK    9  A    between atoms: _22  and  _23
REMARK   10  A    between atoms: _22  and  _25
REMARK   11  A    between atoms: _27  and  _29
REMARK   12  A    between atoms: _29  and  _30
REMARK   13  A    between atoms: _29  and  _32
REMARK   14  A    between atoms: _32  and  _33
REMARK   15  A    between atoms: _38  and  _40
REMARK   16  A    between atoms: _40  and  _41
REMARK   17  A    between atoms: _44  and  _46
REMARK   18  A    between atoms: _46  and  _47
REMARK   19  A    between atoms: _46  and  _49
REMARK   20  A    between atoms: _49  and  _50
REMARK   21  A    between atoms: _50  and  _51
REMARK   22  A    between atoms: _56  and  _58
REMARK   23  A    between atoms: _58  and  _59
REMARK   24  A    between atoms: _58  and  _61
REMARK   25  A    between atoms: _64  and  _66
REMARK   26  A    between atoms: _66  and  _67
REMARK   27  A    between atoms: _66  and  _69
REMARK   28  A    between atoms: _69  and  _70
REMARK   29  A    between atoms: _73  and  _75
REMARK   30  A    between atoms: _75  and  _76
REMARK   31  A    between atoms: _75  and  _78
REMARK   32  A    between atoms: _78  and  _79
REMARK   33  A    between atoms: _84  and  _86
REMARK   34  A    between atoms: _86  and  _87
REMARK   35  A    between atoms: _86  and  _89
REMARK   36  A    between atoms: _89  and  _90
REMARK   37  A    between atoms: _93  and  _95
REMARK   38  A    between atoms: _95  and  _96
REMARK   39  A    between atoms: _95  and  _98
REMARK   40  A    between atoms: _98  and  _99
REMARK   41  A    between atoms: _102  and  _104
REMARK   42  A    between atoms: _104  and  _105
REMARK   43  A    between atoms: _104  and  _107
REMARK   44  A    between atoms: _107  and  _108
REMARK   45  A    between atoms: _108  and  _109
REMARK   46  A    between atoms: _109  and  _110
REMARK   47  A    between atoms: _110  and  _111
REMARK   48  A    between atoms: _115  and  _117
REMARK   49  A    between atoms: _117  and  _118
REMARK   50  A    between atoms: _117  and  _120
REMARK   51  A    between atoms: _120  and  _121
REMARK   52  A    between atoms: _126  and  _127
REMARK   53  A    between atoms: _129  and  _131
REMARK   54  A    between atoms: _131  and  _132
REMARK   55  A    between atoms: _131  and  _134
REMARK   56  A    between atoms: _134  and  _135
REMARK   57  A    between atoms: _140  and  _142
REMARK   58  A    between atoms: _142  and  _143
REMARK   59  A    between atoms: _142  and  _145
REMARK   60  A    between atoms: _145  and  _146
REMARK   61  A    between atoms: _149  and  _151
REMARK   62  A    between atoms: _151  and  _152
REMARK   63  A    between atoms: _154  and  _156
REMARK   64  A    between atoms: _156  and  _157
REMARK   65  A    between atoms: _160  and  _162
REMARK   66  A    between atoms: _162  and  _163
REMARK   67  A    between atoms: _162  and  _165
REMARK   68  A    between atoms: _165  and  _166
REMARK   69  A    between atoms: _171  and  _172
REMARK   70  A    between atoms: _174  and  _176
REMARK   71  A    between atoms: _176  and  _177
REMARK   72  A    between atoms: _176  and  _179
REMARK   73  A    between atoms: _179  and  _180
REMARK   74  A    between atoms: _183  and  _185
REMARK   75  A    between atoms: _185  and  _186
REMARK   76  A    between atoms: _185  and  _188
REMARK   77  A    between atoms: _191  and  _193
REMARK   78  A    between atoms: _193  and  _194
REMARK   79  A    between atoms: _193  and  _196
REMARK   80  A    between atoms: _196  and  _197
REMARK   81  A    between atoms: _197  and  _198
REMARK   82  A    between atoms: _198  and  _199
REMARK   83  A    between atoms: _208  and  _210
REMARK   84  A    between atoms: _210  and  _211
REMARK   85  A    between atoms: _210  and  _213
REMARK   86  A    between atoms: _213  and  _214
REMARK   87  A    between atoms: _217  and  _219
REMARK   88  A    between atoms: _219  and  _220
REMARK   89  A    between atoms: _219  and  _222
REMARK   90  A    between atoms: _225  and  _227
REMARK   91  A    between atoms: _227  and  _228
REMARK   92  A    between atoms: _231  and  _233
REMARK   93  A    between atoms: _233  and  _234
REMARK   94  A    between atoms: _236  and  _238
REMARK   95  A    between atoms: _238  and  _239
REMARK   96  A    between atoms: _238  and  _241
REMARK   97  A    between atoms: _241  and  _242
REMARK   98  A    between atoms: _247  and  _249
REMARK   99  A    between atoms: _249  and  _250
REMARK  100  A    between atoms: _249  and  _252
REMARK  101  A    between atoms: _252  and  _253
REMARK  102  A    between atoms: _253  and  _254
REMARK  103  A    between atoms: _254  and  _255
REMARK  104  A    between atoms: _264  and  _266
REMARK  105  A    between atoms: _266  and  _267
REMARK  106  A    between atoms: _266  and  _269
REMARK  107  A    between atoms: _269  and  _270
REMARK  108  A    between atoms: _273  and  _275
REMARK  109  A    between atoms: _275  and  _276
REMARK  110  A    between atoms: _275  and  _278
REMARK  111  A    between atoms: _278  and  _279
REMARK  112  A    between atoms: _281  and  _283
REMARK  113  A    between atoms: _283  and  _284
REMARK  114  A    between atoms: _283  and  _286
REMARK  115  A    between atoms: _286  and  _287
REMARK  116  A    between atoms: _287  and  _390
REMARK  117  A    between atoms: _288  and  _290
REMARK  118  A    between atoms: _290  and  _291
REMARK  119  A    between atoms: _290  and  _293
REMARK  120  A    between atoms: _293  and  _294
REMARK  121  A    between atoms: _294  and  _295
REMARK  122  A    between atoms: _300  and  _302
REMARK  123  A    between atoms: _302  and  _303
REMARK  124  A    between atoms: _305  and  _307
REMARK  125  A    between atoms: _307  and  _308
REMARK  126  A    between atoms: _307  and  _310
REMARK  127  A    between atoms: _310  and  _311
REMARK  128  A    between atoms: _314  and  _316
REMARK  129  A    between atoms: _316  and  _317
REMARK  130  A    between atoms: _316  and  _319
REMARK  131  A    between atoms: _319  and  _320
REMARK  132  A    between atoms: _322  and  _324
REMARK  133  A    between atoms: _324  and  _325
REMARK  134  A    between atoms: _327  and  _329
REMARK  135  A    between atoms: _329  and  _330
REMARK  136  A    between atoms: _332  and  _334
REMARK  137  A    between atoms: _334  and  _335
REMARK  138  A    between atoms: _334  and  _337
REMARK  139  A    between atoms: _340  and  _342
REMARK  140  A    between atoms: _342  and  _343
REMARK  141  A    between atoms: _342  and  _345
REMARK  142  A    between atoms: _345  and  _346
REMARK  143  A    between atoms: _348  and  _350
REMARK  144  A    between atoms: _350  and  _351
REMARK  145  A    between atoms: _350  and  _353
REMARK  146  A    between atoms: _353  and  _354
REMARK  147  A    between atoms: _364  and  _366
REMARK  148  A    between atoms: _366  and  _367
REMARK  149  A    between atoms: _369  and  _371
REMARK  150  A    between atoms: _371  and  _372
REMARK  151  A    between atoms: _371  and  _374
REMARK  152  A    between atoms: _374  and  _375
REMARK  153  A    between atoms: _375  and  _376
REMARK  154  A    between atoms: _379  and  _381
REMARK  155  A    between atoms: _381  and  _382
REMARK  156  A    between atoms: _384  and  _386
REMARK  157  A    between atoms: _386  and  _387
REMARK  158  A    between atoms: _386  and  _389
REMARK  159  A    between atoms: _389  and  _390
REMARK  160  A    between atoms: _391  and  _393
REMARK  161  A    between atoms: _393  and  _394
REMARK  162  A    between atoms: _397  and  _399
REMARK  163  A    between atoms: _399  and  _400
REMARK  164  A    between atoms: _399  and  _402
REMARK  165  A    between atoms: _402  and  _403
REMARK  166  A    between atoms: _403  and  _404
REMARK  167  A    between atoms: _409  and  _411
REMARK  168  A    between atoms: _411  and  _412
REMARK  169  A    between atoms: _411  and  _414
REMARK  170  A    between atoms: _414  and  _415
REMARK  171  A    between atoms: _420  and  _422
REMARK  172  A    between atoms: _422  and  _423
REMARK  173  A    between atoms: _422  and  _425
REMARK  174  A    between atoms: _425  and  _426
REMARK  175  A    between atoms: _426  and  _427
REMARK  176  A    between atoms: _427  and  _428
REMARK  177  A    between atoms: _438  and  _439
REMARK  178  A    between atoms: _444  and  _446
REMARK  179  A    between atoms: _446  and  _447
REMARK  180  A    between atoms: _449  and  _451
REMARK  181  A    between atoms: _451  and  _452
REMARK  182  A    between atoms: _451  and  _454
REMARK  183  A    between atoms: _454  and  _455
REMARK  184  A    between atoms: _458  and  _460
REMARK  185  A    between atoms: _460  and  _461
REMARK  186  A    between atoms: _460  and  _463
REMARK  187  A    between atoms: _463  and  _464
REMARK  188  A    between atoms: _469  and  _470
REMARK  189  A    between atoms: _472  and  _474
REMARK  190  A    between atoms: _474  and  _475
REMARK  191  A    between atoms: _478  and  _479
REMARK  192  A    between atoms: _484  and  _486
REMARK  193  A    between atoms: _486  and  _487
REMARK  194  A    between atoms: _486  and  _489
REMARK  195  A    between atoms: _489  and  _490
REMARK  196  A    between atoms: _493  and  _495
REMARK  197  A    between atoms: _495  and  _496
REMARK  198  A    between atoms: _495  and  _498
REMARK  199  A    between atoms: _501  and  _503
REMARK  200  A    between atoms: _503  and  _504
REMARK  201  A    between atoms: _503  and  _506
REMARK  202  A    between atoms: _506  and  _507
REMARK  203  A    between atoms: _513  and  _515
REMARK  204  A    between atoms: _515  and  _516
REMARK  205  A    between atoms: _515  and  _518
REMARK  206  A    between atoms: _518  and  _519
REMARK  207  A    between atoms: _524  and  _525
REMARK  208  A    between atoms: _527  and  _529
REMARK  209  A    between atoms: _529  and  _530
REMARK  210  A    between atoms: _529  and  _532
REMARK  211  A    between atoms: _532  and  _533
REMARK  212  A    between atoms: _536  and  _538
REMARK  213  A    between atoms: _538  and  _539
REMARK  214  A    between atoms: _542  and  _544
REMARK  215  A    between atoms: _544  and  _545
REMARK  216  A    between atoms: _544  and  _547
REMARK  217  A    between atoms: _547  and  _548
REMARK  218  A    between atoms: _548  and  _549
REMARK  219  A    between atoms: _554  and  _556
REMARK  220  A    between atoms: _556  and  _557
REMARK  221  A    between atoms: _556  and  _559
REMARK  222  A    between atoms: _559  and  _560
REMARK                            x       y       z     vdW  Elec       q    Type
REMARK                         _______ _______ _______ _____ _____    ______ ____
ROOT
ATOM      1  O   HOH     1      23.617  75.471  88.254  0.00  0.00    +0.000 OA
ENDROOT
TORSDOF 0
REMARK  Name = ../refined-set-2016/2za5/2za5_pocket.pdb
REMARK  222 active torsions:
REMARK  status: ('A' for Active; 'I' for Inactive)
REMARK    1  A    between atoms: _1  and  _5
REMARK    2  A    between atoms: _5  and  _6
REMARK    3  A    between atoms: _5  and  _8
REMARK    4  A    between atoms: _8  and  _9
REMARK    5  A    between atoms: _12  and  _14
REMARK    6  A    between atoms: _14  and  _15
REMARK    7  A    between atoms: _14  and  _17
REMARK    8  A    between atoms: _20  and  _22
REMARK    9  A    between atoms: _22  and  _23
REMARK   10  A    between atoms: _22  and  _25
REMARK   11  A    between atoms: _27  and  _29
REMARK   12  A    between atoms: _29  and  _30
REMARK   13  A    between atoms: _29  and  _32
REMARK   14  A    between atoms: _32  and  _33
REMARK   15  A    between atoms: _38  and  _40
REMARK   16  A    between atoms: _40  and  _41
REMARK   17  A    between atoms: _44  and  _46
REMARK   18  A    between atoms: _46  and  _47
REMARK   19  A    between atoms: _46  and  _49
REMARK   20  A    between atoms: _49  and  _50
REMARK   21  A    between atoms: _50  and  _51
REMARK   22  A    between atoms: _56  and  _58
REMARK   23  A    between atoms: _58  and  _59
REMARK   24  A    between atoms: _58  and  _61
REMARK   25  A    between atoms: _64  and  _66
REMARK   26  A    between atoms: _66  and  _67
REMARK   27  A    between atoms: _66  and  _69
REMARK   28  A    between atoms: _69  and  _70
REMARK   29  A    between atoms: _73  and  _75
REMARK   30  A    between atoms: _75  and  _76
REMARK   31  A    between atoms: _75  and  _78
REMARK   32  A    between atoms: _78  and  _79
REMARK   33  A    between atoms: _84  and  _86
REMARK   34  A    between atoms: _86  and  _87
REMARK   35  A    between atoms: _86  and  _89
REMARK   36  A    between atoms: _89  and  _90
REMARK   37  A    between atoms: _93  and  _95
REMARK   38  A    between atoms: _95  and  _96
REMARK   39  A    between atoms: _95  and  _98
REMARK   40  A    between atoms: _98  and  _99
REMARK   41  A    between atoms: _102  and  _104
REMARK   42  A    between atoms: _104  and  _105
REMARK   43  A    between atoms: _104  and  _107
REMARK   44  A    between atoms: _107  and  _108
REMARK   45  A    between atoms: _108  and  _109
REMARK   46  A    between atoms: _109  and  _110
REMARK   47  A    between atoms: _110  and  _111
REMARK   48  A    between atoms: _115  and  _117
REMARK   49  A    between atoms: _117  and  _118
REMARK   50  A    between atoms: _117  and  _120
REMARK   51  A    between atoms: _120  and  _121
REMARK   52  A    between atoms: _126  and  _127
REMARK   53  A    between atoms: _129  and  _131
REMARK   54  A    between atoms: _131  and  _132
REMARK   55  A    between atoms: _131  and  _134
REMARK   56  A    between atoms: _134  and  _135
REMARK   57  A    between atoms: _140  and  _142
REMARK   58  A    between atoms: _142  and  _143
REMARK   59  A    between atoms: _142  and  _145
REMARK   60  A    between atoms: _145  and  _146
REMARK   61  A    between atoms: _149  and  _151
REMARK   62  A    between atoms: _151  and  _152
REMARK   63  A    between atoms: _154  and  _156
REMARK   64  A    between atoms: _156  and  _157
REMARK   65  A    between atoms: _160  and  _162
REMARK   66  A    between atoms: _162  and  _163
REMARK   67  A    between atoms: _162  and  _165
REMARK   68  A    between atoms: _165  and  _166
REMARK   69  A    between atoms: _171  and  _172
REMARK   70  A    between atoms: _174  and  _176
REMARK   71  A    between atoms: _176  and  _177
REMARK   72  A    between atoms: _176  and  _179
REMARK   73  A    between atoms: _179  and  _180
REMARK   74  A    between atoms: _183  and  _185
REMARK   75  A    between atoms: _185  and  _186
REMARK   76  A    between atoms: _185  and  _188
REMARK   77  A    between atoms: _191  and  _193
REMARK   78  A    between atoms: _193  and  _194
REMARK   79  A    between atoms: _193  and  _196
REMARK   80  A    between atoms: _196  and  _197
REMARK   81  A    between atoms: _197  and  _198
REMARK   82  A    between atoms: _198  and  _199
REMARK   83  A    between atoms: _208  and  _210
REMARK   84  A    between atoms: _210  and  _211
REMARK   85  A    between atoms: _210  and  _213
REMARK   86  A    between atoms: _213  and  _214
REMARK   87  A    between atoms: _217  and  _219
REMARK   88  A    between atoms: _219  and  _220
REMARK   89  A    between atoms: _219  and  _222
REMARK   90  A    between atoms: _225  and  _227
REMARK   91  A    between atoms: _227  and  _228
REMARK   92  A    between atoms: _231  and  _233
REMARK   93  A    between atoms: _233  and  _234
REMARK   94  A    between atoms: _236  and  _238
REMARK   95  A    between atoms: _238  and  _239
REMARK   96  A    between atoms: _238  and  _241
REMARK   97  A    between atoms: _241  and  _242
REMARK   98  A    between atoms: _247  and  _249
REMARK   99  A    between atoms: _249  and  _250
REMARK  100  A    between atoms: _249  and  _252
REMARK  101  A    between atoms: _252  and  _253
REMARK  102  A    between atoms: _253  and  _254
REMARK  103  A    between atoms: _254  and  _255
REMARK  104  A    between atoms: _264  and  _266
REMARK  105  A    between atoms: _266  and  _267
REMARK  106  A    between atoms: _266  and  _269
REMARK  107  A    between atoms: _269  and  _270
REMARK  108  A    between atoms: _273  and  _275
REMARK  109  A    between atoms: _275  and  _276
REMARK  110  A    between atoms: _275  and  _278
REMARK  111  A    between atoms: _278  and  _279
REMARK  112  A    between atoms: _281  and  _283
REMARK  113  A    between atoms: _283  and  _284
REMARK  114  A    between atoms: _283  and  _286
REMARK  115  A    between atoms: _286  and  _287
REMARK  116  A    between atoms: _287  and  _390
REMARK  117  A    between atoms: _288  and  _290
REMARK  118  A    between atoms: _290  and  _291
REMARK  119  A    between atoms: _290  and  _293
REMARK  120  A    between atoms: _293  and  _294
REMARK  121  A    between atoms: _294  and  _295
REMARK  122  A    between atoms: _300  and  _302
REMARK  123  A    between atoms: _302  and  _303
REMARK  124  A    between atoms: _305  and  _307
REMARK  125  A    between atoms: _307  and  _308
REMARK  126  A    between atoms: _307  and  _310
REMARK  127  A    between atoms: _310  and  _311
REMARK  128  A    between atoms: _314  and  _316
REMARK  129  A    between atoms: _316  and  _317
REMARK  130  A    between atoms: _316  and  _319
REMARK  131  A    between atoms: _319  and  _320
REMARK  132  A    between atoms: _322  and  _324
REMARK  133  A    between atoms: _324  and  _325
REMARK  134  A    between atoms: _327  and  _329
REMARK  135  A    between atoms: _329  and  _330
REMARK  136  A    between atoms: _332  and  _334
REMARK  137  A    between atoms: _334  and  _335
REMARK  138  A    between atoms: _334  and  _337
REMARK  139  A    between atoms: _340  and  _342
REMARK  140  A    between atoms: _342  and  _343
REMARK  141  A    between atoms: _342  and  _345
REMARK  142  A    between atoms: _345  and  _346
REMARK  143  A    between atoms: _348  and  _350
REMARK  144  A    between atoms: _350  and  _351
REMARK  145  A    between atoms: _350  and  _353
REMARK  146  A    between atoms: _353  and  _354
REMARK  147  A    between atoms: _364  and  _366
REMARK  148  A    between atoms: _366  and  _367
REMARK  149  A    between atoms: _369  and  _371
REMARK  150  A    between atoms: _371  and  _372
REMARK  151  A    between atoms: _371  and  _374
REMARK  152  A    between atoms: _374  and  _375
REMARK  153  A    between atoms: _375  and  _376
REMARK  154  A    between atoms: _379  and  _381
REMARK  155  A    between atoms: _381  and  _382
REMARK  156  A    between atoms: _384  and  _386
REMARK  157  A    between atoms: _386  and  _387
REMARK  158  A    between atoms: _386  and  _389
REMARK  159  A    between atoms: _389  and  _390
REMARK  160  A    between atoms: _391  and  _393
REMARK  161  A    between atoms: _393  and  _394
REMARK  162  A    between atoms: _397  and  _399
REMARK  163  A    between atoms: _399  and  _400
REMARK  164  A    between atoms: _399  and  _402
REMARK  165  A    between atoms: _402  and  _403
REMARK  166  A    between atoms: _403  and  _404
REMARK  167  A    between atoms: _409  and  _411
REMARK  168  A    between atoms: _411  and  _412
REMARK  169  A    between atoms: _411  and  _414
REMARK  170  A    between atoms: _414  and  _415
REMARK  171  A    between atoms: _420  and  _422
REMARK  172  A    between atoms: _422  and  _423
REMARK  173  A    between atoms: _422  and  _425
REMARK  174  A    between atoms: _425  and  _426
REMARK  175  A    between atoms: _426  and  _427
REMARK  176  A    between atoms: _427  and  _428
REMARK  177  A    between atoms: _438  and  _439
REMARK  178  A    between atoms: _444  and  _446
REMARK  179  A    between atoms: _446  and  _447
REMARK  180  A    between atoms: _449  and  _451
REMARK  181  A    between atoms: _451  and  _452
REMARK  182  A    between atoms: _451  and  _454
REMARK  183  A    between atoms: _454  and  _455
REMARK  184  A    between atoms: _458  and  _460
REMARK  185  A    between atoms: _460  and  _461
REMARK  186  A    between atoms: _460  and  _463
REMARK  187  A    between atoms: _463  and  _464
REMARK  188  A    between atoms: _469  and  _470
REMARK  189  A    between atoms: _472  and  _474
REMARK  190  A    between atoms: _474  and  _475
REMARK  191  A    between atoms: _478  and  _479
REMARK  192  A    between atoms: _484  and  _486
REMARK  193  A    between atoms: _486  and  _487
REMARK  194  A    between atoms: _486  and  _489
REMARK  195  A    between atoms: _489  and  _490
REMARK  196  A    between atoms: _493  and  _495
REMARK  197  A    between atoms: _495  and  _496
REMARK  198  A    between atoms: _495  and  _498
REMARK  199  A    between atoms: _501  and  _503
REMARK  200  A    between atoms: _503  and  _504
REMARK  201  A    between atoms: _503  and  _506
REMARK  202  A    between atoms: _506  and  _507
REMARK  203  A    between atoms: _513  and  _515
REMARK  204  A    between atoms: _515  and  _516
REMARK  205  A    between atoms: _515  and  _518
REMARK  206  A    between atoms: _518  and  _519
REMARK  207  A    between atoms: _524  and  _525
REMARK  208  A    between atoms: _527  and  _529
REMARK  209  A    between atoms: _529  and  _530
REMARK  210  A    between atoms: _529  and  _532
REMARK  211  A    between atoms: _532  and  _533
REMARK  212  A    between atoms: _536  and  _538
REMARK  213  A    between atoms: _538  and  _539
REMARK  214  A    between atoms: _542  and  _544
REMARK  215  A    between atoms: _544  and  _545
REMARK  216  A    between atoms: _544  and  _547
REMARK  217  A    between atoms: _547  and  _548
REMARK  218  A    between atoms: _548  and  _549
REMARK  219  A    between atoms: _554  and  _556
REMARK  220  A    between atoms: _556  and  _557
REMARK  221  A    between atoms: _556  and  _559
REMARK  222  A    between atoms: _559  and  _560
REMARK                            x       y       z     vdW  Elec       q    Type
REMARK                         _______ _______ _______ _____ _____    ______ ____
ROOT
ATOM      1  O   HOH     1      22.200  75.967  79.190  0.00  0.00    +0.000 OA
ENDROOT
TORSDOF 0
REMARK  Name = ../refined-set-2016/2za5/2za5_pocket.pdb
REMARK  222 active torsions:
REMARK  status: ('A' for Active; 'I' for Inactive)
REMARK    1  A    between atoms: _1  and  _5
REMARK    2  A    between atoms: _5  and  _6
REMARK    3  A    between atoms: _5  and  _8
REMARK    4  A    between atoms: _8  and  _9
REMARK    5  A    between atoms: _12  and  _14
REMARK    6  A    between atoms: _14  and  _15
REMARK    7  A    between atoms: _14  and  _17
REMARK    8  A    between atoms: _20  and  _22
REMARK    9  A    between atoms: _22  and  _23
REMARK   10  A    between atoms: _22  and  _25
REMARK   11  A    between atoms: _27  and  _29
REMARK   12  A    between atoms: _29  and  _30
REMARK   13  A    between atoms: _29  and  _32
REMARK   14  A    between atoms: _32  and  _33
REMARK   15  A    between atoms: _38  and  _40
REMARK   16  A    between atoms: _40  and  _41
REMARK   17  A    between atoms: _44  and  _46
REMARK   18  A    between atoms: _46  and  _47
REMARK   19  A    between atoms: _46  and  _49
REMARK   20  A    between atoms: _49  and  _50
REMARK   21  A    between atoms: _50  and  _51
REMARK   22  A    between atoms: _56  and  _58
REMARK   23  A    between atoms: _58  and  _59
REMARK   24  A    between atoms: _58  and  _61
REMARK   25  A    between atoms: _64  and  _66
REMARK   26  A    between atoms: _66  and  _67
REMARK   27  A    between atoms: _66  and  _69
REMARK   28  A    between atoms: _69  and  _70
REMARK   29  A    between atoms: _73  and  _75
REMARK   30  A    between atoms: _75  and  _76
REMARK   31  A    between atoms: _75  and  _78
REMARK   32  A    between atoms: _78  and  _79
REMARK   33  A    between atoms: _84  and  _86
REMARK   34  A    between atoms: _86  and  _87
REMARK   35  A    between atoms: _86  and  _89
REMARK   36  A    between atoms: _89  and  _90
REMARK   37  A    between atoms: _93  and  _95
REMARK   38  A    between atoms: _95  and  _96
REMARK   39  A    between atoms: _95  and  _98
REMARK   40  A    between atoms: _98  and  _99
REMARK   41  A    between atoms: _102  and  _104
REMARK   42  A    between atoms: _104  and  _105
REMARK   43  A    between atoms: _104  and  _107
REMARK   44  A    between atoms: _107  and  _108
REMARK   45  A    between atoms: _108  and  _109
REMARK   46  A    between atoms: _109  and  _110
REMARK   47  A    between atoms: _110  and  _111
REMARK   48  A    between atoms: _115  and  _117
REMARK   49  A    between atoms: _117  and  _118
REMARK   50  A    between atoms: _117  and  _120
REMARK   51  A    between atoms: _120  and  _121
REMARK   52  A    between atoms: _126  and  _127
REMARK   53  A    between atoms: _129  and  _131
REMARK   54  A    between atoms: _131  and  _132
REMARK   55  A    between atoms: _131  and  _134
REMARK   56  A    between atoms: _134  and  _135
REMARK   57  A    between atoms: _140  and  _142
REMARK   58  A    between atoms: _142  and  _143
REMARK   59  A    between atoms: _142  and  _145
REMARK   60  A    between atoms: _145  and  _146
REMARK   61  A    between atoms: _149  and  _151
REMARK   62  A    between atoms: _151  and  _152
REMARK   63  A    between atoms: _154  and  _156
REMARK   64  A    between atoms: _156  and  _157
REMARK   65  A    between atoms: _160  and  _162
REMARK   66  A    between atoms: _162  and  _163
REMARK   67  A    between atoms: _162  and  _165
REMARK   68  A    between atoms: _165  and  _166
REMARK   69  A    between atoms: _171  and  _172
REMARK   70  A    between atoms: _174  and  _176
REMARK   71  A    between atoms: _176  and  _177
REMARK   72  A    between atoms: _176  and  _179
REMARK   73  A    between atoms: _179  and  _180
REMARK   74  A    between atoms: _183  and  _185
REMARK   75  A    between atoms: _185  and  _186
REMARK   76  A    between atoms: _185  and  _188
REMARK   77  A    between atoms: _191  and  _193
REMARK   78  A    between atoms: _193  and  _194
REMARK   79  A    between atoms: _193  and  _196
REMARK   80  A    between atoms: _196  and  _197
REMARK   81  A    between atoms: _197  and  _198
REMARK   82  A    between atoms: _198  and  _199
REMARK   83  A    between atoms: _208  and  _210
REMARK   84  A    between atoms: _210  and  _211
REMARK   85  A    between atoms: _210  and  _213
REMARK   86  A    between atoms: _213  and  _214
REMARK   87  A    between atoms: _217  and  _219
REMARK   88  A    between atoms: _219  and  _220
REMARK   89  A    between atoms: _219  and  _222
REMARK   90  A    between atoms: _225  and  _227
REMARK   91  A    between atoms: _227  and  _228
REMARK   92  A    between atoms: _231  and  _233
REMARK   93  A    between atoms: _233  and  _234
REMARK   94  A    between atoms: _236  and  _238
REMARK   95  A    between atoms: _238  and  _239
REMARK   96  A    between atoms: _238  and  _241
REMARK   97  A    between atoms: _241  and  _242
REMARK   98  A    between atoms: _247  and  _249
REMARK   99  A    between atoms: _249  and  _250
REMARK  100  A    between atoms: _249  and  _252
REMARK  101  A    between atoms: _252  and  _253
REMARK  102  A    between atoms: _253  and  _254
REMARK  103  A    between atoms: _254  and  _255
REMARK  104  A    between atoms: _264  and  _266
REMARK  105  A    between atoms: _266  and  _267
REMARK  106  A    between atoms: _266  and  _269
REMARK  107  A    between atoms: _269  and  _270
REMARK  108  A    between atoms: _273  and  _275
REMARK  109  A    between atoms: _275  and  _276
REMARK  110  A    between atoms: _275  and  _278
REMARK  111  A    between atoms: _278  and  _279
REMARK  112  A    between atoms: _281  and  _283
REMARK  113  A    between atoms: _283  and  _284
REMARK  114  A    between atoms: _283  and  _286
REMARK  115  A    between atoms: _286  and  _287
REMARK  116  A    between atoms: _287  and  _390
REMARK  117  A    between atoms: _288  and  _290
REMARK  118  A    between atoms: _290  and  _291
REMARK  119  A    between atoms: _290  and  _293
REMARK  120  A    between atoms: _293  and  _294
REMARK  121  A    between atoms: _294  and  _295
REMARK  122  A    between atoms: _300  and  _302
REMARK  123  A    between atoms: _302  and  _303
REMARK  124  A    between atoms: _305  and  _307
REMARK  125  A    between atoms: _307  and  _308
REMARK  126  A    between atoms: _307  and  _310
REMARK  127  A    between atoms: _310  and  _311
REMARK  128  A    between atoms: _314  and  _316
REMARK  129  A    between atoms: _316  and  _317
REMARK  130  A    between atoms: _316  and  _319
REMARK  131  A    between atoms: _319  and  _320
REMARK  132  A    between atoms: _322  and  _324
REMARK  133  A    between atoms: _324  and  _325
REMARK  134  A    between atoms: _327  and  _329
REMARK  135  A    between atoms: _329  and  _330
REMARK  136  A    between atoms: _332  and  _334
REMARK  137  A    between atoms: _334  and  _335
REMARK  138  A    between atoms: _334  and  _337
REMARK  139  A    between atoms: _340  and  _342
REMARK  140  A    between atoms: _342  and  _343
REMARK  141  A    between atoms: _342  and  _345
REMARK  142  A    between atoms: _345  and  _346
REMARK  143  A    between atoms: _348  and  _350
REMARK  144  A    between atoms: _350  and  _351
REMARK  145  A    between atoms: _350  and  _353
REMARK  146  A    between atoms: _353  and  _354
REMARK  147  A    between atoms: _364  and  _366
REMARK  148  A    between atoms: _366  and  _367
REMARK  149  A    between atoms: _369  and  _371
REMARK  150  A    between atoms: _371  and  _372
REMARK  151  A    between atoms: _371  and  _374
REMARK  152  A    between atoms: _374  and  _375
REMARK  153  A    between atoms: _375  and  _376
REMARK  154  A    between atoms: _379  and  _381
REMARK  155  A    between atoms: _381  and  _382
REMARK  156  A    between atoms: _384  and  _386
REMARK  157  A    between atoms: _386  and  _387
REMARK  158  A    between atoms: _386  and  _389
REMARK  159  A    between atoms: _389  and  _390
REMARK  160  A    between atoms: _391  and  _393
REMARK  161  A    between atoms: _393  and  _394
REMARK  162  A    between atoms: _397  and  _399
REMARK  163  A    between atoms: _399  and  _400
REMARK  164  A    between atoms: _399  and  _402
REMARK  165  A    between atoms: _402  and  _403
REMARK  166  A    between atoms: _403  and  _404
REMARK  167  A    between atoms: _409  and  _411
REMARK  168  A    between atoms: _411  and  _412
REMARK  169  A    between atoms: _411  and  _414
REMARK  170  A    between atoms: _414  and  _415
REMARK  171  A    between atoms: _420  and  _422
REMARK  172  A    between atoms: _422  and  _423
REMARK  173  A    between atoms: _422  and  _425
REMARK  174  A    between atoms: _425  and  _426
REMARK  175  A    between atoms: _426  and  _427
REMARK  176  A    between atoms: _427  and  _428
REMARK  177  A    between atoms: _438  and  _439
REMARK  178  A    between atoms: _444  and  _446
REMARK  179  A    between atoms: _446  and  _447
REMARK  180  A    between atoms: _449  and  _451
REMARK  181  A    between atoms: _451  and  _452
REMARK  182  A    between atoms: _451  and  _454
REMARK  183  A    between atoms: _454  and  _455
REMARK  184  A    between atoms: _458  and  _460
REMARK  185  A    between atoms: _460  and  _461
REMARK  186  A    between atoms: _460  and  _463
REMARK  187  A    between atoms: _463  and  _464
REMARK  188  A    between atoms: _469  and  _470
REMARK  189  A    between atoms: _472  and  _474
REMARK  190  A    between atoms: _474  and  _475
REMARK  191  A    between atoms: _478  and  _479
REMARK  192  A    between atoms: _484  and  _486
REMARK  193  A    between atoms: _486  and  _487
REMARK  194  A    between atoms: _486  and  _489
REMARK  195  A    between atoms: _489  and  _490
REMARK  196  A    between atoms: _493  and  _495
REMARK  197  A    between atoms: _495  and  _496
REMARK  198  A    between atoms: _495  and  _498
REMARK  199  A    between atoms: _501  and  _503
REMARK  200  A    between atoms: _503  and  _504
REMARK  201  A    between atoms: _503  and  _506
REMARK  202  A    between atoms: _506  and  _507
REMARK  203  A    between atoms: _513  and  _515
REMARK  204  A    between atoms: _515  and  _516
REMARK  205  A    between atoms: _515  and  _518
REMARK  206  A    between atoms: _518  and  _519
REMARK  207  A    between atoms: _524  and  _525
REMARK  208  A    between atoms: _527  and  _529
REMARK  209  A    between atoms: _529  and  _530
REMARK  210  A    between atoms: _529  and  _532
REMARK  211  A    between atoms: _532  and  _533
REMARK  212  A    between atoms: _536  and  _538
REMARK  213  A    between atoms: _538  and  _539
REMARK  214  A    between atoms: _542  and  _544
REMARK  215  A    between atoms: _544  and  _545
REMARK  216  A    between atoms: _544  and  _547
REMARK  217  A    between atoms: _547  and  _548
REMARK  218  A    between atoms: _548  and  _549
REMARK  219  A    between atoms: _554  and  _556
REMARK  220  A    between atoms: _556  and  _557
REMARK  221  A    between atoms: _556  and  _559
REMARK  222  A    between atoms: _559  and  _560
REMARK                            x       y       z     vdW  Elec       q    Type
REMARK                         _______ _______ _______ _____ _____    ______ ____
ROOT
ATOM      1  O   HOH     1      24.215  85.374  83.251  0.00  0.00    +0.000 OA
ENDROOT
TORSDOF 0
REMARK  Name = ../refined-set-2016/2za5/2za5_pocket.pdb
REMARK  222 active torsions:
REMARK  status: ('A' for Active; 'I' for Inactive)
REMARK    1  A    between atoms: _1  and  _5
REMARK    2  A    between atoms: _5  and  _6
REMARK    3  A    between atoms: _5  and  _8
REMARK    4  A    between atoms: _8  and  _9
REMARK    5  A    between atoms: _12  and  _14
REMARK    6  A    between atoms: _14  and  _15
REMARK    7  A    between atoms: _14  and  _17
REMARK    8  A    between atoms: _20  and  _22
REMARK    9  A    between atoms: _22  and  _23
REMARK   10  A    between atoms: _22  and  _25
REMARK   11  A    between atoms: _27  and  _29
REMARK   12  A    between atoms: _29  and  _30
REMARK   13  A    between atoms: _29  and  _32
REMARK   14  A    between atoms: _32  and  _33
REMARK   15  A    between atoms: _38  and  _40
REMARK   16  A    between atoms: _40  and  _41
REMARK   17  A    between atoms: _44  and  _46
REMARK   18  A    between atoms: _46  and  _47
REMARK   19  A    between atoms: _46  and  _49
REMARK   20  A    between atoms: _49  and  _50
REMARK   21  A    between atoms: _50  and  _51
REMARK   22  A    between atoms: _56  and  _58
REMARK   23  A    between atoms: _58  and  _59
REMARK   24  A    between atoms: _58  and  _61
REMARK   25  A    between atoms: _64  and  _66
REMARK   26  A    between atoms: _66  and  _67
REMARK   27  A    between atoms: _66  and  _69
REMARK   28  A    between atoms: _69  and  _70
REMARK   29  A    between atoms: _73  and  _75
REMARK   30  A    between atoms: _75  and  _76
REMARK   31  A    between atoms: _75  and  _78
REMARK   32  A    between atoms: _78  and  _79
REMARK   33  A    between atoms: _84  and  _86
REMARK   34  A    between atoms: _86  and  _87
REMARK   35  A    between atoms: _86  and  _89
REMARK   36  A    between atoms: _89  and  _90
REMARK   37  A    between atoms: _93  and  _95
REMARK   38  A    between atoms: _95  and  _96
REMARK   39  A    between atoms: _95  and  _98
REMARK   40  A    between atoms: _98  and  _99
REMARK   41  A    between atoms: _102  and  _104
REMARK   42  A    between atoms: _104  and  _105
REMARK   43  A    between atoms: _104  and  _107
REMARK   44  A    between atoms: _107  and  _108
REMARK   45  A    between atoms: _108  and  _109
REMARK   46  A    between atoms: _109  and  _110
REMARK   47  A    between atoms: _110  and  _111
REMARK   48  A    between atoms: _115  and  _117
REMARK   49  A    between atoms: _117  and  _118
REMARK   50  A    between atoms: _117  and  _120
REMARK   51  A    between atoms: _120  and  _121
REMARK   52  A    between atoms: _126  and  _127
REMARK   53  A    between atoms: _129  and  _131
REMARK   54  A    between atoms: _131  and  _132
REMARK   55  A    between atoms: _131  and  _134
REMARK   56  A    between atoms: _134  and  _135
REMARK   57  A    between atoms: _140  and  _142
REMARK   58  A    between atoms: _142  and  _143
REMARK   59  A    between atoms: _142  and  _145
REMARK   60  A    between atoms: _145  and  _146
REMARK   61  A    between atoms: _149  and  _151
REMARK   62  A    between atoms: _151  and  _152
REMARK   63  A    between atoms: _154  and  _156
REMARK   64  A    between atoms: _156  and  _157
REMARK   65  A    between atoms: _160  and  _162
REMARK   66  A    between atoms: _162  and  _163
REMARK   67  A    between atoms: _162  and  _165
REMARK   68  A    between atoms: _165  and  _166
REMARK   69  A    between atoms: _171  and  _172
REMARK   70  A    between atoms: _174  and  _176
REMARK   71  A    between atoms: _176  and  _177
REMARK   72  A    between atoms: _176  and  _179
REMARK   73  A    between atoms: _179  and  _180
REMARK   74  A    between atoms: _183  and  _185
REMARK   75  A    between atoms: _185  and  _186
REMARK   76  A    between atoms: _185  and  _188
REMARK   77  A    between atoms: _191  and  _193
REMARK   78  A    between atoms: _193  and  _194
REMARK   79  A    between atoms: _193  and  _196
REMARK   80  A    between atoms: _196  and  _197
REMARK   81  A    between atoms: _197  and  _198
REMARK   82  A    between atoms: _198  and  _199
REMARK   83  A    between atoms: _208  and  _210
REMARK   84  A    between atoms: _210  and  _211
REMARK   85  A    between atoms: _210  and  _213
REMARK   86  A    between atoms: _213  and  _214
REMARK   87  A    between atoms: _217  and  _219
REMARK   88  A    between atoms: _219  and  _220
REMARK   89  A    between atoms: _219  and  _222
REMARK   90  A    between atoms: _225  and  _227
REMARK   91  A    between atoms: _227  and  _228
REMARK   92  A    between atoms: _231  and  _233
REMARK   93  A    between atoms: _233  and  _234
REMARK   94  A    between atoms: _236  and  _238
REMARK   95  A    between atoms: _238  and  _239
REMARK   96  A    between atoms: _238  and  _241
REMARK   97  A    between atoms: _241  and  _242
REMARK   98  A    between atoms: _247  and  _249
REMARK   99  A    between atoms: _249  and  _250
REMARK  100  A    between atoms: _249  and  _252
REMARK  101  A    between atoms: _252  and  _253
REMARK  102  A    between atoms: _253  and  _254
REMARK  103  A    between atoms: _254  and  _255
REMARK  104  A    between atoms: _264  and  _266
REMARK  105  A    between atoms: _266  and  _267
REMARK  106  A    between atoms: _266  and  _269
REMARK  107  A    between atoms: _269  and  _270
REMARK  108  A    between atoms: _273  and  _275
REMARK  109  A    between atoms: _275  and  _276
REMARK  110  A    between atoms: _275  and  _278
REMARK  111  A    between atoms: _278  and  _279
REMARK  112  A    between atoms: _281  and  _283
REMARK  113  A    between atoms: _283  and  _284
REMARK  114  A    between atoms: _283  and  _286
REMARK  115  A    between atoms: _286  and  _287
REMARK  116  A    between atoms: _287  and  _390
REMARK  117  A    between atoms: _288  and  _290
REMARK  118  A    between atoms: _290  and  _291
REMARK  119  A    between atoms: _290  and  _293
REMARK  120  A    between atoms: _293  and  _294
REMARK  121  A    between atoms: _294  and  _295
REMARK  122  A    between atoms: _300  and  _302
REMARK  123  A    between atoms: _302  and  _303
REMARK  124  A    between atoms: _305  and  _307
REMARK  125  A    between atoms: _307  and  _308
REMARK  126  A    between atoms: _307  and  _310
REMARK  127  A    between atoms: _310  and  _311
REMARK  128  A    between atoms: _314  and  _316
REMARK  129  A    between atoms: _316  and  _317
REMARK  130  A    between atoms: _316  and  _319
REMARK  131  A    between atoms: _319  and  _320
REMARK  132  A    between atoms: _322  and  _324
REMARK  133  A    between atoms: _324  and  _325
REMARK  134  A    between atoms: _327  and  _329
REMARK  135  A    between atoms: _329  and  _330
REMARK  136  A    between atoms: _332  and  _334
REMARK  137  A    between atoms: _334  and  _335
REMARK  138  A    between atoms: _334  and  _337
REMARK  139  A    between atoms: _340  and  _342
REMARK  140  A    between atoms: _342  and  _343
REMARK  141  A    between atoms: _342  and  _345
REMARK  142  A    between atoms: _345  and  _346
REMARK  143  A    between atoms: _348  and  _350
REMARK  144  A    between atoms: _350  and  _351
REMARK  145  A    between atoms: _350  and  _353
REMARK  146  A    between atoms: _353  and  _354
REMARK  147  A    between atoms: _364  and  _366
REMARK  148  A    between atoms: _366  and  _367
REMARK  149  A    between atoms: _369  and  _371
REMARK  150  A    between atoms: _371  and  _372
REMARK  151  A    between atoms: _371  and  _374
REMARK  152  A    between atoms: _374  and  _375
REMARK  153  A    between atoms: _375  and  _376
REMARK  154  A    between atoms: _379  and  _381
REMARK  155  A    between atoms: _381  and  _382
REMARK  156  A    between atoms: _384  and  _386
REMARK  157  A    between atoms: _386  and  _387
REMARK  158  A    between atoms: _386  and  _389
REMARK  159  A    between atoms: _389  and  _390
REMARK  160  A    between atoms: _391  and  _393
REMARK  161  A    between atoms: _393  and  _394
REMARK  162  A    between atoms: _397  and  _399
REMARK  163  A    between atoms: _399  and  _400
REMARK  164  A    between atoms: _399  and  _402
REMARK  165  A    between atoms: _402  and  _403
REMARK  166  A    between atoms: _403  and  _404
REMARK  167  A    between atoms: _409  and  _411
REMARK  168  A    between atoms: _411  and  _412
REMARK  169  A    between atoms: _411  and  _414
REMARK  170  A    between atoms: _414  and  _415
REMARK  171  A    between atoms: _420  and  _422
REMARK  172  A    between atoms: _422  and  _423
REMARK  173  A    between atoms: _422  and  _425
REMARK  174  A    between atoms: _425  and  _426
REMARK  175  A    between atoms: _426  and  _427
REMARK  176  A    between atoms: _427  and  _428
REMARK  177  A    between atoms: _438  and  _439
REMARK  178  A    between atoms: _444  and  _446
REMARK  179  A    between atoms: _446  and  _447
REMARK  180  A    between atoms: _449  and  _451
REMARK  181  A    between atoms: _451  and  _452
REMARK  182  A    between atoms: _451  and  _454
REMARK  183  A    between atoms: _454  and  _455
REMARK  184  A    between atoms: _458  and  _460
REMARK  185  A    between atoms: _460  and  _461
REMARK  186  A    between atoms: _460  and  _463
REMARK  187  A    between atoms: _463  and  _464
REMARK  188  A    between atoms: _469  and  _470
REMARK  189  A    between atoms: _472  and  _474
REMARK  190  A    between atoms: _474  and  _475
REMARK  191  A    between atoms: _478  and  _479
REMARK  192  A    between atoms: _484  and  _486
REMARK  193  A    between atoms: _486  and  _487
REMARK  194  A    between atoms: _486  and  _489
REMARK  195  A    between atoms: _489  and  _490
REMARK  196  A    between atoms: _493  and  _495
REMARK  197  A    between atoms: _495  and  _496
REMARK  198  A    between atoms: _495  and  _498
REMARK  199  A    between atoms: _501  and  _503
REMARK  200  A    between atoms: _503  and  _504
REMARK  201  A    between atoms: _503  and  _506
REMARK  202  A    between atoms: _506  and  _507
REMARK  203  A    between atoms: _513  and  _515
REMARK  204  A    between atoms: _515  and  _516
REMARK  205  A    between atoms: _515  and  _518
REMARK  206  A    between atoms: _518  and  _519
REMARK  207  A    between atoms: _524  and  _525
REMARK  208  A    between atoms: _527  and  _529
REMARK  209  A    between atoms: _529  and  _530
REMARK  210  A    between atoms: _529  and  _532
REMARK  211  A    between atoms: _532  and  _533
REMARK  212  A    between atoms: _536  and  _538
REMARK  213  A    between atoms: _538  and  _539
REMARK  214  A    between atoms: _542  and  _544
REMARK  215  A    between atoms: _544  and  _545
REMARK  216  A    between atoms: _544  and  _547
REMARK  217  A    between atoms: _547  and  _548
REMARK  218  A    between atoms: _548  and  _549
REMARK  219  A    between atoms: _554  and  _556
REMARK  220  A    between atoms: _556  and  _557
REMARK  221  A    between atoms: _556  and  _559
REMARK  222  A    between atoms: _559  and  _560
REMARK                            x       y       z     vdW  Elec       q    Type
REMARK                         _______ _______ _______ _____ _____    ______ ____
ROOT
ATOM      1  O   HOH     1      26.283  65.538  84.557  0.00  0.00    +0.000 OA
ENDROOT
TORSDOF 0
REMARK  Name = ../refined-set-2016/2za5/2za5_pocket.pdb
REMARK  222 active torsions:
REMARK  status: ('A' for Active; 'I' for Inactive)
REMARK    1  A    between atoms: _1  and  _5
REMARK    2  A    between atoms: _5  and  _6
REMARK    3  A    between atoms: _5  and  _8
REMARK    4  A    between atoms: _8  and  _9
REMARK    5  A    between atoms: _12  and  _14
REMARK    6  A    between atoms: _14  and  _15
REMARK    7  A    between atoms: _14  and  _17
REMARK    8  A    between atoms: _20  and  _22
REMARK    9  A    between atoms: _22  and  _23
REMARK   10  A    between atoms: _22  and  _25
REMARK   11  A    between atoms: _27  and  _29
REMARK   12  A    between atoms: _29  and  _30
REMARK   13  A    between atoms: _29  and  _32
REMARK   14  A    between atoms: _32  and  _33
REMARK   15  A    between atoms: _38  and  _40
REMARK   16  A    between atoms: _40  and  _41
REMARK   17  A    between atoms: _44  and  _46
REMARK   18  A    between atoms: _46  and  _47
REMARK   19  A    between atoms: _46  and  _49
REMARK   20  A    between atoms: _49  and  _50
REMARK   21  A    between atoms: _50  and  _51
REMARK   22  A    between atoms: _56  and  _58
REMARK   23  A    between atoms: _58  and  _59
REMARK   24  A    between atoms: _58  and  _61
REMARK   25  A    between atoms: _64  and  _66
REMARK   26  A    between atoms: _66  and  _67
REMARK   27  A    between atoms: _66  and  _69
REMARK   28  A    between atoms: _69  and  _70
REMARK   29  A    between atoms: _73  and  _75
REMARK   30  A    between atoms: _75  and  _76
REMARK   31  A    between atoms: _75  and  _78
REMARK   32  A    between atoms: _78  and  _79
REMARK   33  A    between atoms: _84  and  _86
REMARK   34  A    between atoms: _86  and  _87
REMARK   35  A    between atoms: _86  and  _89
REMARK   36  A    between atoms: _89  and  _90
REMARK   37  A    between atoms: _93  and  _95
REMARK   38  A    between atoms: _95  and  _96
REMARK   39  A    between atoms: _95  and  _98
REMARK   40  A    between atoms: _98  and  _99
REMARK   41  A    between atoms: _102  and  _104
REMARK   42  A    between atoms: _104  and  _105
REMARK   43  A    between atoms: _104  and  _107
REMARK   44  A    between atoms: _107  and  _108
REMARK   45  A    between atoms: _108  and  _109
REMARK   46  A    between atoms: _109  and  _110
REMARK   47  A    between atoms: _110  and  _111
REMARK   48  A    between atoms: _115  and  _117
REMARK   49  A    between atoms: _117  and  _118
REMARK   50  A    between atoms: _117  and  _120
REMARK   51  A    between atoms: _120  and  _121
REMARK   52  A    between atoms: _126  and  _127
REMARK   53  A    between atoms: _129  and  _131
REMARK   54  A    between atoms: _131  and  _132
REMARK   55  A    between atoms: _131  and  _134
REMARK   56  A    between atoms: _134  and  _135
REMARK   57  A    between atoms: _140  and  _142
REMARK   58  A    between atoms: _142  and  _143
REMARK   59  A    between atoms: _142  and  _145
REMARK   60  A    between atoms: _145  and  _146
REMARK   61  A    between atoms: _149  and  _151
REMARK   62  A    between atoms: _151  and  _152
REMARK   63  A    between atoms: _154  and  _156
REMARK   64  A    between atoms: _156  and  _157
REMARK   65  A    between atoms: _160  and  _162
REMARK   66  A    between atoms: _162  and  _163
REMARK   67  A    between atoms: _162  and  _165
REMARK   68  A    between atoms: _165  and  _166
REMARK   69  A    between atoms: _171  and  _172
REMARK   70  A    between atoms: _174  and  _176
REMARK   71  A    between atoms: _176  and  _177
REMARK   72  A    between atoms: _176  and  _179
REMARK   73  A    between atoms: _179  and  _180
REMARK   74  A    between atoms: _183  and  _185
REMARK   75  A    between atoms: _185  and  _186
REMARK   76  A    between atoms: _185  and  _188
REMARK   77  A    between atoms: _191  and  _193
REMARK   78  A    between atoms: _193  and  _194
REMARK   79  A    between atoms: _193  and  _196
REMARK   80  A    between atoms: _196  and  _197
REMARK   81  A    between atoms: _197  and  _198
REMARK   82  A    between atoms: _198  and  _199
REMARK   83  A    between atoms: _208  and  _210
REMARK   84  A    between atoms: _210  and  _211
REMARK   85  A    between atoms: _210  and  _213
REMARK   86  A    between atoms: _213  and  _214
REMARK   87  A    between atoms: _217  and  _219
REMARK   88  A    between atoms: _219  and  _220
REMARK   89  A    between atoms: _219  and  _222
REMARK   90  A    between atoms: _225  and  _227
REMARK   91  A    between atoms: _227  and  _228
REMARK   92  A    between atoms: _231  and  _233
REMARK   93  A    between atoms: _233  and  _234
REMARK   94  A    between atoms: _236  and  _238
REMARK   95  A    between atoms: _238  and  _239
REMARK   96  A    between atoms: _238  and  _241
REMARK   97  A    between atoms: _241  and  _242
REMARK   98  A    between atoms: _247  and  _249
REMARK   99  A    between atoms: _249  and  _250
REMARK  100  A    between atoms: _249  and  _252
REMARK  101  A    between atoms: _252  and  _253
REMARK  102  A    between atoms: _253  and  _254
REMARK  103  A    between atoms: _254  and  _255
REMARK  104  A    between atoms: _264  and  _266
REMARK  105  A    between atoms: _266  and  _267
REMARK  106  A    between atoms: _266  and  _269
REMARK  107  A    between atoms: _269  and  _270
REMARK  108  A    between atoms: _273  and  _275
REMARK  109  A    between atoms: _275  and  _276
REMARK  110  A    between atoms: _275  and  _278
REMARK  111  A    between atoms: _278  and  _279
REMARK  112  A    between atoms: _281  and  _283
REMARK  113  A    between atoms: _283  and  _284
REMARK  114  A    between atoms: _283  and  _286
REMARK  115  A    between atoms: _286  and  _287
REMARK  116  A    between atoms: _287  and  _390
REMARK  117  A    between atoms: _288  and  _290
REMARK  118  A    between atoms: _290  and  _291
REMARK  119  A    between atoms: _290  and  _293
REMARK  120  A    between atoms: _293  and  _294
REMARK  121  A    between atoms: _294  and  _295
REMARK  122  A    between atoms: _300  and  _302
REMARK  123  A    between atoms: _302  and  _303
REMARK  124  A    between atoms: _305  and  _307
REMARK  125  A    between atoms: _307  and  _308
REMARK  126  A    between atoms: _307  and  _310
REMARK  127  A    between atoms: _310  and  _311
REMARK  128  A    between atoms: _314  and  _316
REMARK  129  A    between atoms: _316  and  _317
REMARK  130  A    between atoms: _316  and  _319
REMARK  131  A    between atoms: _319  and  _320
REMARK  132  A    between atoms: _322  and  _324
REMARK  133  A    between atoms: _324  and  _325
REMARK  134  A    between atoms: _327  and  _329
REMARK  135  A    between atoms: _329  and  _330
REMARK  136  A    between atoms: _332  and  _334
REMARK  137  A    between atoms: _334  and  _335
REMARK  138  A    between atoms: _334  and  _337
REMARK  139  A    between atoms: _340  and  _342
REMARK  140  A    between atoms: _342  and  _343
REMARK  141  A    between atoms: _342  and  _345
REMARK  142  A    between atoms: _345  and  _346
REMARK  143  A    between atoms: _348  and  _350
REMARK  144  A    between atoms: _350  and  _351
REMARK  145  A    between atoms: _350  and  _353
REMARK  146  A    between atoms: _353  and  _354
REMARK  147  A    between atoms: _364  and  _366
REMARK  148  A    between atoms: _366  and  _367
REMARK  149  A    between atoms: _369  and  _371
REMARK  150  A    between atoms: _371  and  _372
REMARK  151  A    between atoms: _371  and  _374
REMARK  152  A    between atoms: _374  and  _375
REMARK  153  A    between atoms: _375  and  _376
REMARK  154  A    between atoms: _379  and  _381
REMARK  155  A    between atoms: _381  and  _382
REMARK  156  A    between atoms: _384  and  _386
REMARK  157  A    between atoms: _386  and  _387
REMARK  158  A    between atoms: _386  and  _389
REMARK  159  A    between atoms: _389  and  _390
REMARK  160  A    between atoms: _391  and  _393
REMARK  161  A    between atoms: _393  and  _394
REMARK  162  A    between atoms: _397  and  _399
REMARK  163  A    between atoms: _399  and  _400
REMARK  164  A    between atoms: _399  and  _402
REMARK  165  A    between atoms: _402  and  _403
REMARK  166  A    between atoms: _403  and  _404
REMARK  167  A    between atoms: _409  and  _411
REMARK  168  A    between atoms: _411  and  _412
REMARK  169  A    between atoms: _411  and  _414
REMARK  170  A    between atoms: _414  and  _415
REMARK  171  A    between atoms: _420  and  _422
REMARK  172  A    between atoms: _422  and  _423
REMARK  173  A    between atoms: _422  and  _425
REMARK  174  A    between atoms: _425  and  _426
REMARK  175  A    between atoms: _426  and  _427
REMARK  176  A    between atoms: _427  and  _428
REMARK  177  A    between atoms: _438  and  _439
REMARK  178  A    between atoms: _444  and  _446
REMARK  179  A    between atoms: _446  and  _447
REMARK  180  A    between atoms: _449  and  _451
REMARK  181  A    between atoms: _451  and  _452
REMARK  182  A    between atoms: _451  and  _454
REMARK  183  A    between atoms: _454  and  _455
REMARK  184  A    between atoms: _458  and  _460
REMARK  185  A    between atoms: _460  and  _461
REMARK  186  A    between atoms: _460  and  _463
REMARK  187  A    between atoms: _463  and  _464
REMARK  188  A    between atoms: _469  and  _470
REMARK  189  A    between atoms: _472  and  _474
REMARK  190  A    between atoms: _474  and  _475
REMARK  191  A    between atoms: _478  and  _479
REMARK  192  A    between atoms: _484  and  _486
REMARK  193  A    between atoms: _486  and  _487
REMARK  194  A    between atoms: _486  and  _489
REMARK  195  A    between atoms: _489  and  _490
REMARK  196  A    between atoms: _493  and  _495
REMARK  197  A    between atoms: _495  and  _496
REMARK  198  A    between atoms: _495  and  _498
REMARK  199  A    between atoms: _501  and  _503
REMARK  200  A    between atoms: _503  and  _504
REMARK  201  A    between atoms: _503  and  _506
REMARK  202  A    between atoms: _506  and  _507
REMARK  203  A    between atoms: _513  and  _515
REMARK  204  A    between atoms: _515  and  _516
REMARK  205  A    between atoms: _515  and  _518
REMARK  206  A    between atoms: _518  and  _519
REMARK  207  A    between atoms: _524  and  _525
REMARK  208  A    between atoms: _527  and  _529
REMARK  209  A    between atoms: _529  and  _530
REMARK  210  A    between atoms: _529  and  _532
REMARK  211  A    between atoms: _532  and  _533
REMARK  212  A    between atoms: _536  and  _538
REMARK  213  A    between atoms: _538  and  _539
REMARK  214  A    between atoms: _542  and  _544
REMARK  215  A    between atoms: _544  and  _545
REMARK  216  A    between atoms: _544  and  _547
REMARK  217  A    between atoms: _547  and  _548
REMARK  218  A    between atoms: _548  and  _549
REMARK  219  A    between atoms: _554  and  _556
REMARK  220  A    between atoms: _556  and  _557
REMARK  221  A    between atoms: _556  and  _559
REMARK  222  A    between atoms: _559  and  _560
REMARK                            x       y       z     vdW  Elec       q    Type
REMARK                         _______ _______ _______ _____ _____    ______ ____
ROOT
ATOM      1  O   HOH     1      26.267  72.554  91.497  0.00  0.00    +0.000 OA
ENDROOT
TORSDOF 0
REMARK  Name = ../refined-set-2016/2za5/2za5_pocket.pdb
REMARK  222 active torsions:
REMARK  status: ('A' for Active; 'I' for Inactive)
REMARK    1  A    between atoms: _1  and  _5
REMARK    2  A    between atoms: _5  and  _6
REMARK    3  A    between atoms: _5  and  _8
REMARK    4  A    between atoms: _8  and  _9
REMARK    5  A    between atoms: _12  and  _14
REMARK    6  A    between atoms: _14  and  _15
REMARK    7  A    between atoms: _14  and  _17
REMARK    8  A    between atoms: _20  and  _22
REMARK    9  A    between atoms: _22  and  _23
REMARK   10  A    between atoms: _22  and  _25
REMARK   11  A    between atoms: _27  and  _29
REMARK   12  A    between atoms: _29  and  _30
REMARK   13  A    between atoms: _29  and  _32
REMARK   14  A    between atoms: _32  and  _33
REMARK   15  A    between atoms: _38  and  _40
REMARK   16  A    between atoms: _40  and  _41
REMARK   17  A    between atoms: _44  and  _46
REMARK   18  A    between atoms: _46  and  _47
REMARK   19  A    between atoms: _46  and  _49
REMARK   20  A    between atoms: _49  and  _50
REMARK   21  A    between atoms: _50  and  _51
REMARK   22  A    between atoms: _56  and  _58
REMARK   23  A    between atoms: _58  and  _59
REMARK   24  A    between atoms: _58  and  _61
REMARK   25  A    between atoms: _64  and  _66
REMARK   26  A    between atoms: _66  and  _67
REMARK   27  A    between atoms: _66  and  _69
REMARK   28  A    between atoms: _69  and  _70
REMARK   29  A    between atoms: _73  and  _75
REMARK   30  A    between atoms: _75  and  _76
REMARK   31  A    between atoms: _75  and  _78
REMARK   32  A    between atoms: _78  and  _79
REMARK   33  A    between atoms: _84  and  _86
REMARK   34  A    between atoms: _86  and  _87
REMARK   35  A    between atoms: _86  and  _89
REMARK   36  A    between atoms: _89  and  _90
REMARK   37  A    between atoms: _93  and  _95
REMARK   38  A    between atoms: _95  and  _96
REMARK   39  A    between atoms: _95  and  _98
REMARK   40  A    between atoms: _98  and  _99
REMARK   41  A    between atoms: _102  and  _104
REMARK   42  A    between atoms: _104  and  _105
REMARK   43  A    between atoms: _104  and  _107
REMARK   44  A    between atoms: _107  and  _108
REMARK   45  A    between atoms: _108  and  _109
REMARK   46  A    between atoms: _109  and  _110
REMARK   47  A    between atoms: _110  and  _111
REMARK   48  A    between atoms: _115  and  _117
REMARK   49  A    between atoms: _117  and  _118
REMARK   50  A    between atoms: _117  and  _120
REMARK   51  A    between atoms: _120  and  _121
REMARK   52  A    between atoms: _126  and  _127
REMARK   53  A    between atoms: _129  and  _131
REMARK   54  A    between atoms: _131  and  _132
REMARK   55  A    between atoms: _131  and  _134
REMARK   56  A    between atoms: _134  and  _135
REMARK   57  A    between atoms: _140  and  _142
REMARK   58  A    between atoms: _142  and  _143
REMARK   59  A    between atoms: _142  and  _145
REMARK   60  A    between atoms: _145  and  _146
REMARK   61  A    between atoms: _149  and  _151
REMARK   62  A    between atoms: _151  and  _152
REMARK   63  A    between atoms: _154  and  _156
REMARK   64  A    between atoms: _156  and  _157
REMARK   65  A    between atoms: _160  and  _162
REMARK   66  A    between atoms: _162  and  _163
REMARK   67  A    between atoms: _162  and  _165
REMARK   68  A    between atoms: _165  and  _166
REMARK   69  A    between atoms: _171  and  _172
REMARK   70  A    between atoms: _174  and  _176
REMARK   71  A    between atoms: _176  and  _177
REMARK   72  A    between atoms: _176  and  _179
REMARK   73  A    between atoms: _179  and  _180
REMARK   74  A    between atoms: _183  and  _185
REMARK   75  A    between atoms: _185  and  _186
REMARK   76  A    between atoms: _185  and  _188
REMARK   77  A    between atoms: _191  and  _193
REMARK   78  A    between atoms: _193  and  _194
REMARK   79  A    between atoms: _193  and  _196
REMARK   80  A    between atoms: _196  and  _197
REMARK   81  A    between atoms: _197  and  _198
REMARK   82  A    between atoms: _198  and  _199
REMARK   83  A    between atoms: _208  and  _210
REMARK   84  A    between atoms: _210  and  _211
REMARK   85  A    between atoms: _210  and  _213
REMARK   86  A    between atoms: _213  and  _214
REMARK   87  A    between atoms: _217  and  _219
REMARK   88  A    between atoms: _219  and  _220
REMARK   89  A    between atoms: _219  and  _222
REMARK   90  A    between atoms: _225  and  _227
REMARK   91  A    between atoms: _227  and  _228
REMARK   92  A    between atoms: _231  and  _233
REMARK   93  A    between atoms: _233  and  _234
REMARK   94  A    between atoms: _236  and  _238
REMARK   95  A    between atoms: _238  and  _239
REMARK   96  A    between atoms: _238  and  _241
REMARK   97  A    between atoms: _241  and  _242
REMARK   98  A    between atoms: _247  and  _249
REMARK   99  A    between atoms: _249  and  _250
REMARK  100  A    between atoms: _249  and  _252
REMARK  101  A    between atoms: _252  and  _253
REMARK  102  A    between atoms: _253  and  _254
REMARK  103  A    between atoms: _254  and  _255
REMARK  104  A    between atoms: _264  and  _266
REMARK  105  A    between atoms: _266  and  _267
REMARK  106  A    between atoms: _266  and  _269
REMARK  107  A    between atoms: _269  and  _270
REMARK  108  A    between atoms: _273  and  _275
REMARK  109  A    between atoms: _275  and  _276
REMARK  110  A    between atoms: _275  and  _278
REMARK  111  A    between atoms: _278  and  _279
REMARK  112  A    between atoms: _281  and  _283
REMARK  113  A    between atoms: _283  and  _284
REMARK  114  A    between atoms: _283  and  _286
REMARK  115  A    between atoms: _286  and  _287
REMARK  116  A    between atoms: _287  and  _390
REMARK  117  A    between atoms: _288  and  _290
REMARK  118  A    between atoms: _290  and  _291
REMARK  119  A    between atoms: _290  and  _293
REMARK  120  A    between atoms: _293  and  _294
REMARK  121  A    between atoms: _294  and  _295
REMARK  122  A    between atoms: _300  and  _302
REMARK  123  A    between atoms: _302  and  _303
REMARK  124  A    between atoms: _305  and  _307
REMARK  125  A    between atoms: _307  and  _308
REMARK  126  A    between atoms: _307  and  _310
REMARK  127  A    between atoms: _310  and  _311
REMARK  128  A    between atoms: _314  and  _316
REMARK  129  A    between atoms: _316  and  _317
REMARK  130  A    between atoms: _316  and  _319
REMARK  131  A    between atoms: _319  and  _320
REMARK  132  A    between atoms: _322  and  _324
REMARK  133  A    between atoms: _324  and  _325
REMARK  134  A    between atoms: _327  and  _329
REMARK  135  A    between atoms: _329  and  _330
REMARK  136  A    between atoms: _332  and  _334
REMARK  137  A    between atoms: _334  and  _335
REMARK  138  A    between atoms: _334  and  _337
REMARK  139  A    between atoms: _340  and  _342
REMARK  140  A    between atoms: _342  and  _343
REMARK  141  A    between atoms: _342  and  _345
REMARK  142  A    between atoms: _345  and  _346
REMARK  143  A    between atoms: _348  and  _350
REMARK  144  A    between atoms: _350  and  _351
REMARK  145  A    between atoms: _350  and  _353
REMARK  146  A    between atoms: _353  and  _354
REMARK  147  A    between atoms: _364  and  _366
REMARK  148  A    between atoms: _366  and  _367
REMARK  149  A    between atoms: _369  and  _371
REMARK  150  A    between atoms: _371  and  _372
REMARK  151  A    between atoms: _371  and  _374
REMARK  152  A    between atoms: _374  and  _375
REMARK  153  A    between atoms: _375  and  _376
REMARK  154  A    between atoms: _379  and  _381
REMARK  155  A    between atoms: _381  and  _382
REMARK  156  A    between atoms: _384  and  _386
REMARK  157  A    between atoms: _386  and  _387
REMARK  158  A    between atoms: _386  and  _389
REMARK  159  A    between atoms: _389  and  _390
REMARK  160  A    between atoms: _391  and  _393
REMARK  161  A    between atoms: _393  and  _394
REMARK  162  A    between atoms: _397  and  _399
REMARK  163  A    between atoms: _399  and  _400
REMARK  164  A    between atoms: _399  and  _402
REMARK  165  A    between atoms: _402  and  _403
REMARK  166  A    between atoms: _403  and  _404
REMARK  167  A    between atoms: _409  and  _411
REMARK  168  A    between atoms: _411  and  _412
REMARK  169  A    between atoms: _411  and  _414
REMARK  170  A    between atoms: _414  and  _415
REMARK  171  A    between atoms: _420  and  _422
REMARK  172  A    between atoms: _422  and  _423
REMARK  173  A    between atoms: _422  and  _425
REMARK  174  A    between atoms: _425  and  _426
REMARK  175  A    between atoms: _426  and  _427
REMARK  176  A    between atoms: _427  and  _428
REMARK  177  A    between atoms: _438  and  _439
REMARK  178  A    between atoms: _444  and  _446
REMARK  179  A    between atoms: _446  and  _447
REMARK  180  A    between atoms: _449  and  _451
REMARK  181  A    between atoms: _451  and  _452
REMARK  182  A    between atoms: _451  and  _454
REMARK  183  A    between atoms: _454  and  _455
REMARK  184  A    between atoms: _458  and  _460
REMARK  185  A    between atoms: _460  and  _461
REMARK  186  A    between atoms: _460  and  _463
REMARK  187  A    between atoms: _463  and  _464
REMARK  188  A    between atoms: _469  and  _470
REMARK  189  A    between atoms: _472  and  _474
REMARK  190  A    between atoms: _474  and  _475
REMARK  191  A    between atoms: _478  and  _479
REMARK  192  A    between atoms: _484  and  _486
REMARK  193  A    between atoms: _486  and  _487
REMARK  194  A    between atoms: _486  and  _489
REMARK  195  A    between atoms: _489  and  _490
REMARK  196  A    between atoms: _493  and  _495
REMARK  197  A    between atoms: _495  and  _496
REMARK  198  A    between atoms: _495  and  _498
REMARK  199  A    between atoms: _501  and  _503
REMARK  200  A    between atoms: _503  and  _504
REMARK  201  A    between atoms: _503  and  _506
REMARK  202  A    between atoms: _506  and  _507
REMARK  203  A    between atoms: _513  and  _515
REMARK  204  A    between atoms: _515  and  _516
REMARK  205  A    between atoms: _515  and  _518
REMARK  206  A    between atoms: _518  and  _519
REMARK  207  A    between atoms: _524  and  _525
REMARK  208  A    between atoms: _527  and  _529
REMARK  209  A    between atoms: _529  and  _530
REMARK  210  A    between atoms: _529  and  _532
REMARK  211  A    between atoms: _532  and  _533
REMARK  212  A    between atoms: _536  and  _538
REMARK  213  A    between atoms: _538  and  _539
REMARK  214  A    between atoms: _542  and  _544
REMARK  215  A    between atoms: _544  and  _545
REMARK  216  A    between atoms: _544  and  _547
REMARK  217  A    between atoms: _547  and  _548
REMARK  218  A    between atoms: _548  and  _549
REMARK  219  A    between atoms: _554  and  _556
REMARK  220  A    between atoms: _556  and  _557
REMARK  221  A    between atoms: _556  and  _559
REMARK  222  A    between atoms: _559  and  _560
REMARK                            x       y       z     vdW  Elec       q    Type
REMARK                         _______ _______ _______ _____ _____    ______ ____
ROOT
ATOM      1  O   HOH     1      20.936  80.686  89.374  0.00  0.00    +0.000 OA
ENDROOT
TORSDOF 0
REMARK  Name = ../refined-set-2016/2za5/2za5_pocket.pdb
REMARK  222 active torsions:
REMARK  status: ('A' for Active; 'I' for Inactive)
REMARK    1  A    between atoms: _1  and  _5
REMARK    2  A    between atoms: _5  and  _6
REMARK    3  A    between atoms: _5  and  _8
REMARK    4  A    between atoms: _8  and  _9
REMARK    5  A    between atoms: _12  and  _14
REMARK    6  A    between atoms: _14  and  _15
REMARK    7  A    between atoms: _14  and  _17
REMARK    8  A    between atoms: _20  and  _22
REMARK    9  A    between atoms: _22  and  _23
REMARK   10  A    between atoms: _22  and  _25
REMARK   11  A    between atoms: _27  and  _29
REMARK   12  A    between atoms: _29  and  _30
REMARK   13  A    between atoms: _29  and  _32
REMARK   14  A    between atoms: _32  and  _33
REMARK   15  A    between atoms: _38  and  _40
REMARK   16  A    between atoms: _40  and  _41
REMARK   17  A    between atoms: _44  and  _46
REMARK   18  A    between atoms: _46  and  _47
REMARK   19  A    between atoms: _46  and  _49
REMARK   20  A    between atoms: _49  and  _50
REMARK   21  A    between atoms: _50  and  _51
REMARK   22  A    between atoms: _56  and  _58
REMARK   23  A    between atoms: _58  and  _59
REMARK   24  A    between atoms: _58  and  _61
REMARK   25  A    between atoms: _64  and  _66
REMARK   26  A    between atoms: _66  and  _67
REMARK   27  A    between atoms: _66  and  _69
REMARK   28  A    between atoms: _69  and  _70
REMARK   29  A    between atoms: _73  and  _75
REMARK   30  A    between atoms: _75  and  _76
REMARK   31  A    between atoms: _75  and  _78
REMARK   32  A    between atoms: _78  and  _79
REMARK   33  A    between atoms: _84  and  _86
REMARK   34  A    between atoms: _86  and  _87
REMARK   35  A    between atoms: _86  and  _89
REMARK   36  A    between atoms: _89  and  _90
REMARK   37  A    between atoms: _93  and  _95
REMARK   38  A    between atoms: _95  and  _96
REMARK   39  A    between atoms: _95  and  _98
REMARK   40  A    between atoms: _98  and  _99
REMARK   41  A    between atoms: _102  and  _104
REMARK   42  A    between atoms: _104  and  _105
REMARK   43  A    between atoms: _104  and  _107
REMARK   44  A    between atoms: _107  and  _108
REMARK   45  A    between atoms: _108  and  _109
REMARK   46  A    between atoms: _109  and  _110
REMARK   47  A    between atoms: _110  and  _111
REMARK   48  A    between atoms: _115  and  _117
REMARK   49  A    between atoms: _117  and  _118
REMARK   50  A    between atoms: _117  and  _120
REMARK   51  A    between atoms: _120  and  _121
REMARK   52  A    between atoms: _126  and  _127
REMARK   53  A    between atoms: _129  and  _131
REMARK   54  A    between atoms: _131  and  _132
REMARK   55  A    between atoms: _131  and  _134
REMARK   56  A    between atoms: _134  and  _135
REMARK   57  A    between atoms: _140  and  _142
REMARK   58  A    between atoms: _142  and  _143
REMARK   59  A    between atoms: _142  and  _145
REMARK   60  A    between atoms: _145  and  _146
REMARK   61  A    between atoms: _149  and  _151
REMARK   62  A    between atoms: _151  and  _152
REMARK   63  A    between atoms: _154  and  _156
REMARK   64  A    between atoms: _156  and  _157
REMARK   65  A    between atoms: _160  and  _162
REMARK   66  A    between atoms: _162  and  _163
REMARK   67  A    between atoms: _162  and  _165
REMARK   68  A    between atoms: _165  and  _166
REMARK   69  A    between atoms: _171  and  _172
REMARK   70  A    between atoms: _174  and  _176
REMARK   71  A    between atoms: _176  and  _177
REMARK   72  A    between atoms: _176  and  _179
REMARK   73  A    between atoms: _179  and  _180
REMARK   74  A    between atoms: _183  and  _185
REMARK   75  A    between atoms: _185  and  _186
REMARK   76  A    between atoms: _185  and  _188
REMARK   77  A    between atoms: _191  and  _193
REMARK   78  A    between atoms: _193  and  _194
REMARK   79  A    between atoms: _193  and  _196
REMARK   80  A    between atoms: _196  and  _197
REMARK   81  A    between atoms: _197  and  _198
REMARK   82  A    between atoms: _198  and  _199
REMARK   83  A    between atoms: _208  and  _210
REMARK   84  A    between atoms: _210  and  _211
REMARK   85  A    between atoms: _210  and  _213
REMARK   86  A    between atoms: _213  and  _214
REMARK   87  A    between atoms: _217  and  _219
REMARK   88  A    between atoms: _219  and  _220
REMARK   89  A    between atoms: _219  and  _222
REMARK   90  A    between atoms: _225  and  _227
REMARK   91  A    between atoms: _227  and  _228
REMARK   92  A    between atoms: _231  and  _233
REMARK   93  A    between atoms: _233  and  _234
REMARK   94  A    between atoms: _236  and  _238
REMARK   95  A    between atoms: _238  and  _239
REMARK   96  A    between atoms: _238  and  _241
REMARK   97  A    between atoms: _241  and  _242
REMARK   98  A    between atoms: _247  and  _249
REMARK   99  A    between atoms: _249  and  _250
REMARK  100  A    between atoms: _249  and  _252
REMARK  101  A    between atoms: _252  and  _253
REMARK  102  A    between atoms: _253  and  _254
REMARK  103  A    between atoms: _254  and  _255
REMARK  104  A    between atoms: _264  and  _266
REMARK  105  A    between atoms: _266  and  _267
REMARK  106  A    between atoms: _266  and  _269
REMARK  107  A    between atoms: _269  and  _270
REMARK  108  A    between atoms: _273  and  _275
REMARK  109  A    between atoms: _275  and  _276
REMARK  110  A    between atoms: _275  and  _278
REMARK  111  A    between atoms: _278  and  _279
REMARK  112  A    between atoms: _281  and  _283
REMARK  113  A    between atoms: _283  and  _284
REMARK  114  A    between atoms: _283  and  _286
REMARK  115  A    between atoms: _286  and  _287
REMARK  116  A    between atoms: _287  and  _390
REMARK  117  A    between atoms: _288  and  _290
REMARK  118  A    between atoms: _290  and  _291
REMARK  119  A    between atoms: _290  and  _293
REMARK  120  A    between atoms: _293  and  _294
REMARK  121  A    between atoms: _294  and  _295
REMARK  122  A    between atoms: _300  and  _302
REMARK  123  A    between atoms: _302  and  _303
REMARK  124  A    between atoms: _305  and  _307
REMARK  125  A    between atoms: _307  and  _308
REMARK  126  A    between atoms: _307  and  _310
REMARK  127  A    between atoms: _310  and  _311
REMARK  128  A    between atoms: _314  and  _316
REMARK  129  A    between atoms: _316  and  _317
REMARK  130  A    between atoms: _316  and  _319
REMARK  131  A    between atoms: _319  and  _320
REMARK  132  A    between atoms: _322  and  _324
REMARK  133  A    between atoms: _324  and  _325
REMARK  134  A    between atoms: _327  and  _329
REMARK  135  A    between atoms: _329  and  _330
REMARK  136  A    between atoms: _332  and  _334
REMARK  137  A    between atoms: _334  and  _335
REMARK  138  A    between atoms: _334  and  _337
REMARK  139  A    between atoms: _340  and  _342
REMARK  140  A    between atoms: _342  and  _343
REMARK  141  A    between atoms: _342  and  _345
REMARK  142  A    between atoms: _345  and  _346
REMARK  143  A    between atoms: _348  and  _350
REMARK  144  A    between atoms: _350  and  _351
REMARK  145  A    between atoms: _350  and  _353
REMARK  146  A    between atoms: _353  and  _354
REMARK  147  A    between atoms: _364  and  _366
REMARK  148  A    between atoms: _366  and  _367
REMARK  149  A    between atoms: _369  and  _371
REMARK  150  A    between atoms: _371  and  _372
REMARK  151  A    between atoms: _371  and  _374
REMARK  152  A    between atoms: _374  and  _375
REMARK  153  A    between atoms: _375  and  _376
REMARK  154  A    between atoms: _379  and  _381
REMARK  155  A    between atoms: _381  and  _382
REMARK  156  A    between atoms: _384  and  _386
REMARK  157  A    between atoms: _386  and  _387
REMARK  158  A    between atoms: _386  and  _389
REMARK  159  A    between atoms: _389  and  _390
REMARK  160  A    between atoms: _391  and  _393
REMARK  161  A    between atoms: _393  and  _394
REMARK  162  A    between atoms: _397  and  _399
REMARK  163  A    between atoms: _399  and  _400
REMARK  164  A    between atoms: _399  and  _402
REMARK  165  A    between atoms: _402  and  _403
REMARK  166  A    between atoms: _403  and  _404
REMARK  167  A    between atoms: _409  and  _411
REMARK  168  A    between atoms: _411  and  _412
REMARK  169  A    between atoms: _411  and  _414
REMARK  170  A    between atoms: _414  and  _415
REMARK  171  A    between atoms: _420  and  _422
REMARK  172  A    between atoms: _422  and  _423
REMARK  173  A    between atoms: _422  and  _425
REMARK  174  A    between atoms: _425  and  _426
REMARK  175  A    between atoms: _426  and  _427
REMARK  176  A    between atoms: _427  and  _428
REMARK  177  A    between atoms: _438  and  _439
REMARK  178  A    between atoms: _444  and  _446
REMARK  179  A    between atoms: _446  and  _447
REMARK  180  A    between atoms: _449  and  _451
REMARK  181  A    between atoms: _451  and  _452
REMARK  182  A    between atoms: _451  and  _454
REMARK  183  A    between atoms: _454  and  _455
REMARK  184  A    between atoms: _458  and  _460
REMARK  185  A    between atoms: _460  and  _461
REMARK  186  A    between atoms: _460  and  _463
REMARK  187  A    between atoms: _463  and  _464
REMARK  188  A    between atoms: _469  and  _470
REMARK  189  A    between atoms: _472  and  _474
REMARK  190  A    between atoms: _474  and  _475
REMARK  191  A    between atoms: _478  and  _479
REMARK  192  A    between atoms: _484  and  _486
REMARK  193  A    between atoms: _486  and  _487
REMARK  194  A    between atoms: _486  and  _489
REMARK  195  A    between atoms: _489  and  _490
REMARK  196  A    between atoms: _493  and  _495
REMARK  197  A    between atoms: _495  and  _496
REMARK  198  A    between atoms: _495  and  _498
REMARK  199  A    between atoms: _501  and  _503
REMARK  200  A    between atoms: _503  and  _504
REMARK  201  A    between atoms: _503  and  _506
REMARK  202  A    between atoms: _506  and  _507
REMARK  203  A    between atoms: _513  and  _515
REMARK  204  A    between atoms: _515  and  _516
REMARK  205  A    between atoms: _515  and  _518
REMARK  206  A    between atoms: _518  and  _519
REMARK  207  A    between atoms: _524  and  _525
REMARK  208  A    between atoms: _527  and  _529
REMARK  209  A    between atoms: _529  and  _530
REMARK  210  A    between atoms: _529  and  _532
REMARK  211  A    between atoms: _532  and  _533
REMARK  212  A    between atoms: _536  and  _538
REMARK  213  A    between atoms: _538  and  _539
REMARK  214  A    between atoms: _542  and  _544
REMARK  215  A    between atoms: _544  and  _545
REMARK  216  A    between atoms: _544  and  _547
REMARK  217  A    between atoms: _547  and  _548
REMARK  218  A    between atoms: _548  and  _549
REMARK  219  A    between atoms: _554  and  _556
REMARK  220  A    between atoms: _556  and  _557
REMARK  221  A    between atoms: _556  and  _559
REMARK  222  A    between atoms: _559  and  _560
REMARK                            x       y       z     vdW  Elec       q    Type
REMARK                         _______ _______ _______ _____ _____    ______ ____
ROOT
ATOM      1  O   HOH     1      19.287  76.581  75.306  0.00  0.00    +0.000 OA
ENDROOT
TORSDOF 0
REMARK  Name = ../refined-set-2016/2za5/2za5_pocket.pdb
REMARK  222 active torsions:
REMARK  status: ('A' for Active; 'I' for Inactive)
REMARK    1  A    between atoms: _1  and  _5
REMARK    2  A    between atoms: _5  and  _6
REMARK    3  A    between atoms: _5  and  _8
REMARK    4  A    between atoms: _8  and  _9
REMARK    5  A    between atoms: _12  and  _14
REMARK    6  A    between atoms: _14  and  _15
REMARK    7  A    between atoms: _14  and  _17
REMARK    8  A    between atoms: _20  and  _22
REMARK    9  A    between atoms: _22  and  _23
REMARK   10  A    between atoms: _22  and  _25
REMARK   11  A    between atoms: _27  and  _29
REMARK   12  A    between atoms: _29  and  _30
REMARK   13  A    between atoms: _29  and  _32
REMARK   14  A    between atoms: _32  and  _33
REMARK   15  A    between atoms: _38  and  _40
REMARK   16  A    between atoms: _40  and  _41
REMARK   17  A    between atoms: _44  and  _46
REMARK   18  A    between atoms: _46  and  _47
REMARK   19  A    between atoms: _46  and  _49
REMARK   20  A    between atoms: _49  and  _50
REMARK   21  A    between atoms: _50  and  _51
REMARK   22  A    between atoms: _56  and  _58
REMARK   23  A    between atoms: _58  and  _59
REMARK   24  A    between atoms: _58  and  _61
REMARK   25  A    between atoms: _64  and  _66
REMARK   26  A    between atoms: _66  and  _67
REMARK   27  A    between atoms: _66  and  _69
REMARK   28  A    between atoms: _69  and  _70
REMARK   29  A    between atoms: _73  and  _75
REMARK   30  A    between atoms: _75  and  _76
REMARK   31  A    between atoms: _75  and  _78
REMARK   32  A    between atoms: _78  and  _79
REMARK   33  A    between atoms: _84  and  _86
REMARK   34  A    between atoms: _86  and  _87
REMARK   35  A    between atoms: _86  and  _89
REMARK   36  A    between atoms: _89  and  _90
REMARK   37  A    between atoms: _93  and  _95
REMARK   38  A    between atoms: _95  and  _96
REMARK   39  A    between atoms: _95  and  _98
REMARK   40  A    between atoms: _98  and  _99
REMARK   41  A    between atoms: _102  and  _104
REMARK   42  A    between atoms: _104  and  _105
REMARK   43  A    between atoms: _104  and  _107
REMARK   44  A    between atoms: _107  and  _108
REMARK   45  A    between atoms: _108  and  _109
REMARK   46  A    between atoms: _109  and  _110
REMARK   47  A    between atoms: _110  and  _111
REMARK   48  A    between atoms: _115  and  _117
REMARK   49  A    between atoms: _117  and  _118
REMARK   50  A    between atoms: _117  and  _120
REMARK   51  A    between atoms: _120  and  _121
REMARK   52  A    between atoms: _126  and  _127
REMARK   53  A    between atoms: _129  and  _131
REMARK   54  A    between atoms: _131  and  _132
REMARK   55  A    between atoms: _131  and  _134
REMARK   56  A    between atoms: _134  and  _135
REMARK   57  A    between atoms: _140  and  _142
REMARK   58  A    between atoms: _142  and  _143
REMARK   59  A    between atoms: _142  and  _145
REMARK   60  A    between atoms: _145  and  _146
REMARK   61  A    between atoms: _149  and  _151
REMARK   62  A    between atoms: _151  and  _152
REMARK   63  A    between atoms: _154  and  _156
REMARK   64  A    between atoms: _156  and  _157
REMARK   65  A    between atoms: _160  and  _162
REMARK   66  A    between atoms: _162  and  _163
REMARK   67  A    between atoms: _162  and  _165
REMARK   68  A    between atoms: _165  and  _166
REMARK   69  A    between atoms: _171  and  _172
REMARK   70  A    between atoms: _174  and  _176
REMARK   71  A    between atoms: _176  and  _177
REMARK   72  A    between atoms: _176  and  _179
REMARK   73  A    between atoms: _179  and  _180
REMARK   74  A    between atoms: _183  and  _185
REMARK   75  A    between atoms: _185  and  _186
REMARK   76  A    between atoms: _185  and  _188
REMARK   77  A    between atoms: _191  and  _193
REMARK   78  A    between atoms: _193  and  _194
REMARK   79  A    between atoms: _193  and  _196
REMARK   80  A    between atoms: _196  and  _197
REMARK   81  A    between atoms: _197  and  _198
REMARK   82  A    between atoms: _198  and  _199
REMARK   83  A    between atoms: _208  and  _210
REMARK   84  A    between atoms: _210  and  _211
REMARK   85  A    between atoms: _210  and  _213
REMARK   86  A    between atoms: _213  and  _214
REMARK   87  A    between atoms: _217  and  _219
REMARK   88  A    between atoms: _219  and  _220
REMARK   89  A    between atoms: _219  and  _222
REMARK   90  A    between atoms: _225  and  _227
REMARK   91  A    between atoms: _227  and  _228
REMARK   92  A    between atoms: _231  and  _233
REMARK   93  A    between atoms: _233  and  _234
REMARK   94  A    between atoms: _236  and  _238
REMARK   95  A    between atoms: _238  and  _239
REMARK   96  A    between atoms: _238  and  _241
REMARK   97  A    between atoms: _241  and  _242
REMARK   98  A    between atoms: _247  and  _249
REMARK   99  A    between atoms: _249  and  _250
REMARK  100  A    between atoms: _249  and  _252
REMARK  101  A    between atoms: _252  and  _253
REMARK  102  A    between atoms: _253  and  _254
REMARK  103  A    between atoms: _254  and  _255
REMARK  104  A    between atoms: _264  and  _266
REMARK  105  A    between atoms: _266  and  _267
REMARK  106  A    between atoms: _266  and  _269
REMARK  107  A    between atoms: _269  and  _270
REMARK  108  A    between atoms: _273  and  _275
REMARK  109  A    between atoms: _275  and  _276
REMARK  110  A    between atoms: _275  and  _278
REMARK  111  A    between atoms: _278  and  _279
REMARK  112  A    between atoms: _281  and  _283
REMARK  113  A    between atoms: _283  and  _284
REMARK  114  A    between atoms: _283  and  _286
REMARK  115  A    between atoms: _286  and  _287
REMARK  116  A    between atoms: _287  and  _390
REMARK  117  A    between atoms: _288  and  _290
REMARK  118  A    between atoms: _290  and  _291
REMARK  119  A    between atoms: _290  and  _293
REMARK  120  A    between atoms: _293  and  _294
REMARK  121  A    between atoms: _294  and  _295
REMARK  122  A    between atoms: _300  and  _302
REMARK  123  A    between atoms: _302  and  _303
REMARK  124  A    between atoms: _305  and  _307
REMARK  125  A    between atoms: _307  and  _308
REMARK  126  A    between atoms: _307  and  _310
REMARK  127  A    between atoms: _310  and  _311
REMARK  128  A    between atoms: _314  and  _316
REMARK  129  A    between atoms: _316  and  _317
REMARK  130  A    between atoms: _316  and  _319
REMARK  131  A    between atoms: _319  and  _320
REMARK  132  A    between atoms: _322  and  _324
REMARK  133  A    between atoms: _324  and  _325
REMARK  134  A    between atoms: _327  and  _329
REMARK  135  A    between atoms: _329  and  _330
REMARK  136  A    between atoms: _332  and  _334
REMARK  137  A    between atoms: _334  and  _335
REMARK  138  A    between atoms: _334  and  _337
REMARK  139  A    between atoms: _340  and  _342
REMARK  140  A    between atoms: _342  and  _343
REMARK  141  A    between atoms: _342  and  _345
REMARK  142  A    between atoms: _345  and  _346
REMARK  143  A    between atoms: _348  and  _350
REMARK  144  A    between atoms: _350  and  _351
REMARK  145  A    between atoms: _350  and  _353
REMARK  146  A    between atoms: _353  and  _354
REMARK  147  A    between atoms: _364  and  _366
REMARK  148  A    between atoms: _366  and  _367
REMARK  149  A    between atoms: _369  and  _371
REMARK  150  A    between atoms: _371  and  _372
REMARK  151  A    between atoms: _371  and  _374
REMARK  152  A    between atoms: _374  and  _375
REMARK  153  A    between atoms: _375  and  _376
REMARK  154  A    between atoms: _379  and  _381
REMARK  155  A    between atoms: _381  and  _382
REMARK  156  A    between atoms: _384  and  _386
REMARK  157  A    between atoms: _386  and  _387
REMARK  158  A    between atoms: _386  and  _389
REMARK  159  A    between atoms: _389  and  _390
REMARK  160  A    between atoms: _391  and  _393
REMARK  161  A    between atoms: _393  and  _394
REMARK  162  A    between atoms: _397  and  _399
REMARK  163  A    between atoms: _399  and  _400
REMARK  164  A    between atoms: _399  and  _402
REMARK  165  A    between atoms: _402  and  _403
REMARK  166  A    between atoms: _403  and  _404
REMARK  167  A    between atoms: _409  and  _411
REMARK  168  A    between atoms: _411  and  _412
REMARK  169  A    between atoms: _411  and  _414
REMARK  170  A    between atoms: _414  and  _415
REMARK  171  A    between atoms: _420  and  _422
REMARK  172  A    between atoms: _422  and  _423
REMARK  173  A    between atoms: _422  and  _425
REMARK  174  A    between atoms: _425  and  _426
REMARK  175  A    between atoms: _426  and  _427
REMARK  176  A    between atoms: _427  and  _428
REMARK  177  A    between atoms: _438  and  _439
REMARK  178  A    between atoms: _444  and  _446
REMARK  179  A    between atoms: _446  and  _447
REMARK  180  A    between atoms: _449  and  _451
REMARK  181  A    between atoms: _451  and  _452
REMARK  182  A    between atoms: _451  and  _454
REMARK  183  A    between atoms: _454  and  _455
REMARK  184  A    between atoms: _458  and  _460
REMARK  185  A    between atoms: _460  and  _461
REMARK  186  A    between atoms: _460  and  _463
REMARK  187  A    between atoms: _463  and  _464
REMARK  188  A    between atoms: _469  and  _470
REMARK  189  A    between atoms: _472  and  _474
REMARK  190  A    between atoms: _474  and  _475
REMARK  191  A    between atoms: _478  and  _479
REMARK  192  A    between atoms: _484  and  _486
REMARK  193  A    between atoms: _486  and  _487
REMARK  194  A    between atoms: _486  and  _489
REMARK  195  A    between atoms: _489  and  _490
REMARK  196  A    between atoms: _493  and  _495
REMARK  197  A    between atoms: _495  and  _496
REMARK  198  A    between atoms: _495  and  _498
REMARK  199  A    between atoms: _501  and  _503
REMARK  200  A    between atoms: _503  and  _504
REMARK  201  A    between atoms: _503  and  _506
REMARK  202  A    between atoms: _506  and  _507
REMARK  203  A    between atoms: _513  and  _515
REMARK  204  A    between atoms: _515  and  _516
REMARK  205  A    between atoms: _515  and  _518
REMARK  206  A    between atoms: _518  and  _519
REMARK  207  A    between atoms: _524  and  _525
REMARK  208  A    between atoms: _527  and  _529
REMARK  209  A    between atoms: _529  and  _530
REMARK  210  A    between atoms: _529  and  _532
REMARK  211  A    between atoms: _532  and  _533
REMARK  212  A    between atoms: _536  and  _538
REMARK  213  A    between atoms: _538  and  _539
REMARK  214  A    between atoms: _542  and  _544
REMARK  215  A    between atoms: _544  and  _545
REMARK  216  A    between atoms: _544  and  _547
REMARK  217  A    between atoms: _547  and  _548
REMARK  218  A    between atoms: _548  and  _549
REMARK  219  A    between atoms: _554  and  _556
REMARK  220  A    between atoms: _556  and  _557
REMARK  221  A    between atoms: _556  and  _559
REMARK  222  A    between atoms: _559  and  _560
REMARK                            x       y       z     vdW  Elec       q    Type
REMARK                         _______ _______ _______ _____ _____    ______ ____
ROOT
ATOM      1  O   HOH     1      20.647  76.108  73.251  0.00  0.00    +0.000 OA
ENDROOT
TORSDOF 0
REMARK  Name = ../refined-set-2016/2za5/2za5_pocket.pdb
REMARK  222 active torsions:
REMARK  status: ('A' for Active; 'I' for Inactive)
REMARK    1  A    between atoms: _1  and  _5
REMARK    2  A    between atoms: _5  and  _6
REMARK    3  A    between atoms: _5  and  _8
REMARK    4  A    between atoms: _8  and  _9
REMARK    5  A    between atoms: _12  and  _14
REMARK    6  A    between atoms: _14  and  _15
REMARK    7  A    between atoms: _14  and  _17
REMARK    8  A    between atoms: _20  and  _22
REMARK    9  A    between atoms: _22  and  _23
REMARK   10  A    between atoms: _22  and  _25
REMARK   11  A    between atoms: _27  and  _29
REMARK   12  A    between atoms: _29  and  _30
REMARK   13  A    between atoms: _29  and  _32
REMARK   14  A    between atoms: _32  and  _33
REMARK   15  A    between atoms: _38  and  _40
REMARK   16  A    between atoms: _40  and  _41
REMARK   17  A    between atoms: _44  and  _46
REMARK   18  A    between atoms: _46  and  _47
REMARK   19  A    between atoms: _46  and  _49
REMARK   20  A    between atoms: _49  and  _50
REMARK   21  A    between atoms: _50  and  _51
REMARK   22  A    between atoms: _56  and  _58
REMARK   23  A    between atoms: _58  and  _59
REMARK   24  A    between atoms: _58  and  _61
REMARK   25  A    between atoms: _64  and  _66
REMARK   26  A    between atoms: _66  and  _67
REMARK   27  A    between atoms: _66  and  _69
REMARK   28  A    between atoms: _69  and  _70
REMARK   29  A    between atoms: _73  and  _75
REMARK   30  A    between atoms: _75  and  _76
REMARK   31  A    between atoms: _75  and  _78
REMARK   32  A    between atoms: _78  and  _79
REMARK   33  A    between atoms: _84  and  _86
REMARK   34  A    between atoms: _86  and  _87
REMARK   35  A    between atoms: _86  and  _89
REMARK   36  A    between atoms: _89  and  _90
REMARK   37  A    between atoms: _93  and  _95
REMARK   38  A    between atoms: _95  and  _96
REMARK   39  A    between atoms: _95  and  _98
REMARK   40  A    between atoms: _98  and  _99
REMARK   41  A    between atoms: _102  and  _104
REMARK   42  A    between atoms: _104  and  _105
REMARK   43  A    between atoms: _104  and  _107
REMARK   44  A    between atoms: _107  and  _108
REMARK   45  A    between atoms: _108  and  _109
REMARK   46  A    between atoms: _109  and  _110
REMARK   47  A    between atoms: _110  and  _111
REMARK   48  A    between atoms: _115  and  _117
REMARK   49  A    between atoms: _117  and  _118
REMARK   50  A    between atoms: _117  and  _120
REMARK   51  A    between atoms: _120  and  _121
REMARK   52  A    between atoms: _126  and  _127
REMARK   53  A    between atoms: _129  and  _131
REMARK   54  A    between atoms: _131  and  _132
REMARK   55  A    between atoms: _131  and  _134
REMARK   56  A    between atoms: _134  and  _135
REMARK   57  A    between atoms: _140  and  _142
REMARK   58  A    between atoms: _142  and  _143
REMARK   59  A    between atoms: _142  and  _145
REMARK   60  A    between atoms: _145  and  _146
REMARK   61  A    between atoms: _149  and  _151
REMARK   62  A    between atoms: _151  and  _152
REMARK   63  A    between atoms: _154  and  _156
REMARK   64  A    between atoms: _156  and  _157
REMARK   65  A    between atoms: _160  and  _162
REMARK   66  A    between atoms: _162  and  _163
REMARK   67  A    between atoms: _162  and  _165
REMARK   68  A    between atoms: _165  and  _166
REMARK   69  A    between atoms: _171  and  _172
REMARK   70  A    between atoms: _174  and  _176
REMARK   71  A    between atoms: _176  and  _177
REMARK   72  A    between atoms: _176  and  _179
REMARK   73  A    between atoms: _179  and  _180
REMARK   74  A    between atoms: _183  and  _185
REMARK   75  A    between atoms: _185  and  _186
REMARK   76  A    between atoms: _185  and  _188
REMARK   77  A    between atoms: _191  and  _193
REMARK   78  A    between atoms: _193  and  _194
REMARK   79  A    between atoms: _193  and  _196
REMARK   80  A    between atoms: _196  and  _197
REMARK   81  A    between atoms: _197  and  _198
REMARK   82  A    between atoms: _198  and  _199
REMARK   83  A    between atoms: _208  and  _210
REMARK   84  A    between atoms: _210  and  _211
REMARK   85  A    between atoms: _210  and  _213
REMARK   86  A    between atoms: _213  and  _214
REMARK   87  A    between atoms: _217  and  _219
REMARK   88  A    between atoms: _219  and  _220
REMARK   89  A    between atoms: _219  and  _222
REMARK   90  A    between atoms: _225  and  _227
REMARK   91  A    between atoms: _227  and  _228
REMARK   92  A    between atoms: _231  and  _233
REMARK   93  A    between atoms: _233  and  _234
REMARK   94  A    between atoms: _236  and  _238
REMARK   95  A    between atoms: _238  and  _239
REMARK   96  A    between atoms: _238  and  _241
REMARK   97  A    between atoms: _241  and  _242
REMARK   98  A    between atoms: _247  and  _249
REMARK   99  A    between atoms: _249  and  _250
REMARK  100  A    between atoms: _249  and  _252
REMARK  101  A    between atoms: _252  and  _253
REMARK  102  A    between atoms: _253  and  _254
REMARK  103  A    between atoms: _254  and  _255
REMARK  104  A    between atoms: _264  and  _266
REMARK  105  A    between atoms: _266  and  _267
REMARK  106  A    between atoms: _266  and  _269
REMARK  107  A    between atoms: _269  and  _270
REMARK  108  A    between atoms: _273  and  _275
REMARK  109  A    between atoms: _275  and  _276
REMARK  110  A    between atoms: _275  and  _278
REMARK  111  A    between atoms: _278  and  _279
REMARK  112  A    between atoms: _281  and  _283
REMARK  113  A    between atoms: _283  and  _284
REMARK  114  A    between atoms: _283  and  _286
REMARK  115  A    between atoms: _286  and  _287
REMARK  116  A    between atoms: _287  and  _390
REMARK  117  A    between atoms: _288  and  _290
REMARK  118  A    between atoms: _290  and  _291
REMARK  119  A    between atoms: _290  and  _293
REMARK  120  A    between atoms: _293  and  _294
REMARK  121  A    between atoms: _294  and  _295
REMARK  122  A    between atoms: _300  and  _302
REMARK  123  A    between atoms: _302  and  _303
REMARK  124  A    between atoms: _305  and  _307
REMARK  125  A    between atoms: _307  and  _308
REMARK  126  A    between atoms: _307  and  _310
REMARK  127  A    between atoms: _310  and  _311
REMARK  128  A    between atoms: _314  and  _316
REMARK  129  A    between atoms: _316  and  _317
REMARK  130  A    between atoms: _316  and  _319
REMARK  131  A    between atoms: _319  and  _320
REMARK  132  A    between atoms: _322  and  _324
REMARK  133  A    between atoms: _324  and  _325
REMARK  134  A    between atoms: _327  and  _329
REMARK  135  A    between atoms: _329  and  _330
REMARK  136  A    between atoms: _332  and  _334
REMARK  137  A    between atoms: _334  and  _335
REMARK  138  A    between atoms: _334  and  _337
REMARK  139  A    between atoms: _340  and  _342
REMARK  140  A    between atoms: _342  and  _343
REMARK  141  A    between atoms: _342  and  _345
REMARK  142  A    between atoms: _345  and  _346
REMARK  143  A    between atoms: _348  and  _350
REMARK  144  A    between atoms: _350  and  _351
REMARK  145  A    between atoms: _350  and  _353
REMARK  146  A    between atoms: _353  and  _354
REMARK  147  A    between atoms: _364  and  _366
REMARK  148  A    between atoms: _366  and  _367
REMARK  149  A    between atoms: _369  and  _371
REMARK  150  A    between atoms: _371  and  _372
REMARK  151  A    between atoms: _371  and  _374
REMARK  152  A    between atoms: _374  and  _375
REMARK  153  A    between atoms: _375  and  _376
REMARK  154  A    between atoms: _379  and  _381
REMARK  155  A    between atoms: _381  and  _382
REMARK  156  A    between atoms: _384  and  _386
REMARK  157  A    between atoms: _386  and  _387
REMARK  158  A    between atoms: _386  and  _389
REMARK  159  A    between atoms: _389  and  _390
REMARK  160  A    between atoms: _391  and  _393
REMARK  161  A    between atoms: _393  and  _394
REMARK  162  A    between atoms: _397  and  _399
REMARK  163  A    between atoms: _399  and  _400
REMARK  164  A    between atoms: _399  and  _402
REMARK  165  A    between atoms: _402  and  _403
REMARK  166  A    between atoms: _403  and  _404
REMARK  167  A    between atoms: _409  and  _411
REMARK  168  A    between atoms: _411  and  _412
REMARK  169  A    between atoms: _411  and  _414
REMARK  170  A    between atoms: _414  and  _415
REMARK  171  A    between atoms: _420  and  _422
REMARK  172  A    between atoms: _422  and  _423
REMARK  173  A    between atoms: _422  and  _425
REMARK  174  A    between atoms: _425  and  _426
REMARK  175  A    between atoms: _426  and  _427
REMARK  176  A    between atoms: _427  and  _428
REMARK  177  A    between atoms: _438  and  _439
REMARK  178  A    between atoms: _444  and  _446
REMARK  179  A    between atoms: _446  and  _447
REMARK  180  A    between atoms: _449  and  _451
REMARK  181  A    between atoms: _451  and  _452
REMARK  182  A    between atoms: _451  and  _454
REMARK  183  A    between atoms: _454  and  _455
REMARK  184  A    between atoms: _458  and  _460
REMARK  185  A    between atoms: _460  and  _461
REMARK  186  A    between atoms: _460  and  _463
REMARK  187  A    between atoms: _463  and  _464
REMARK  188  A    between atoms: _469  and  _470
REMARK  189  A    between atoms: _472  and  _474
REMARK  190  A    between atoms: _474  and  _475
REMARK  191  A    between atoms: _478  and  _479
REMARK  192  A    between atoms: _484  and  _486
REMARK  193  A    between atoms: _486  and  _487
REMARK  194  A    between atoms: _486  and  _489
REMARK  195  A    between atoms: _489  and  _490
REMARK  196  A    between atoms: _493  and  _495
REMARK  197  A    between atoms: _495  and  _496
REMARK  198  A    between atoms: _495  and  _498
REMARK  199  A    between atoms: _501  and  _503
REMARK  200  A    between atoms: _503  and  _504
REMARK  201  A    between atoms: _503  and  _506
REMARK  202  A    between atoms: _506  and  _507
REMARK  203  A    between atoms: _513  and  _515
REMARK  204  A    between atoms: _515  and  _516
REMARK  205  A    between atoms: _515  and  _518
REMARK  206  A    between atoms: _518  and  _519
REMARK  207  A    between atoms: _524  and  _525
REMARK  208  A    between atoms: _527  and  _529
REMARK  209  A    between atoms: _529  and  _530
REMARK  210  A    between atoms: _529  and  _532
REMARK  211  A    between atoms: _532  and  _533
REMARK  212  A    between atoms: _536  and  _538
REMARK  213  A    between atoms: _538  and  _539
REMARK  214  A    between atoms: _542  and  _544
REMARK  215  A    between atoms: _544  and  _545
REMARK  216  A    between atoms: _544  and  _547
REMARK  217  A    between atoms: _547  and  _548
REMARK  218  A    between atoms: _548  and  _549
REMARK  219  A    between atoms: _554  and  _556
REMARK  220  A    between atoms: _556  and  _557
REMARK  221  A    between atoms: _556  and  _559
REMARK  222  A    between atoms: _559  and  _560
REMARK                            x       y       z     vdW  Elec       q    Type
REMARK                         _______ _______ _______ _____ _____    ______ ____
ROOT
ATOM      1  O   HOH     1      17.362  74.943  82.946  0.00  0.00    +0.000 OA
ENDROOT
TORSDOF 0
REMARK  Name = ../refined-set-2016/2za5/2za5_pocket.pdb
REMARK  222 active torsions:
REMARK  status: ('A' for Active; 'I' for Inactive)
REMARK    1  A    between atoms: _1  and  _5
REMARK    2  A    between atoms: _5  and  _6
REMARK    3  A    between atoms: _5  and  _8
REMARK    4  A    between atoms: _8  and  _9
REMARK    5  A    between atoms: _12  and  _14
REMARK    6  A    between atoms: _14  and  _15
REMARK    7  A    between atoms: _14  and  _17
REMARK    8  A    between atoms: _20  and  _22
REMARK    9  A    between atoms: _22  and  _23
REMARK   10  A    between atoms: _22  and  _25
REMARK   11  A    between atoms: _27  and  _29
REMARK   12  A    between atoms: _29  and  _30
REMARK   13  A    between atoms: _29  and  _32
REMARK   14  A    between atoms: _32  and  _33
REMARK   15  A    between atoms: _38  and  _40
REMARK   16  A    between atoms: _40  and  _41
REMARK   17  A    between atoms: _44  and  _46
REMARK   18  A    between atoms: _46  and  _47
REMARK   19  A    between atoms: _46  and  _49
REMARK   20  A    between atoms: _49  and  _50
REMARK   21  A    between atoms: _50  and  _51
REMARK   22  A    between atoms: _56  and  _58
REMARK   23  A    between atoms: _58  and  _59
REMARK   24  A    between atoms: _58  and  _61
REMARK   25  A    between atoms: _64  and  _66
REMARK   26  A    between atoms: _66  and  _67
REMARK   27  A    between atoms: _66  and  _69
REMARK   28  A    between atoms: _69  and  _70
REMARK   29  A    between atoms: _73  and  _75
REMARK   30  A    between atoms: _75  and  _76
REMARK   31  A    between atoms: _75  and  _78
REMARK   32  A    between atoms: _78  and  _79
REMARK   33  A    between atoms: _84  and  _86
REMARK   34  A    between atoms: _86  and  _87
REMARK   35  A    between atoms: _86  and  _89
REMARK   36  A    between atoms: _89  and  _90
REMARK   37  A    between atoms: _93  and  _95
REMARK   38  A    between atoms: _95  and  _96
REMARK   39  A    between atoms: _95  and  _98
REMARK   40  A    between atoms: _98  and  _99
REMARK   41  A    between atoms: _102  and  _104
REMARK   42  A    between atoms: _104  and  _105
REMARK   43  A    between atoms: _104  and  _107
REMARK   44  A    between atoms: _107  and  _108
REMARK   45  A    between atoms: _108  and  _109
REMARK   46  A    between atoms: _109  and  _110
REMARK   47  A    between atoms: _110  and  _111
REMARK   48  A    between atoms: _115  and  _117
REMARK   49  A    between atoms: _117  and  _118
REMARK   50  A    between atoms: _117  and  _120
REMARK   51  A    between atoms: _120  and  _121
REMARK   52  A    between atoms: _126  and  _127
REMARK   53  A    between atoms: _129  and  _131
REMARK   54  A    between atoms: _131  and  _132
REMARK   55  A    between atoms: _131  and  _134
REMARK   56  A    between atoms: _134  and  _135
REMARK   57  A    between atoms: _140  and  _142
REMARK   58  A    between atoms: _142  and  _143
REMARK   59  A    between atoms: _142  and  _145
REMARK   60  A    between atoms: _145  and  _146
REMARK   61  A    between atoms: _149  and  _151
REMARK   62  A    between atoms: _151  and  _152
REMARK   63  A    between atoms: _154  and  _156
REMARK   64  A    between atoms: _156  and  _157
REMARK   65  A    between atoms: _160  and  _162
REMARK   66  A    between atoms: _162  and  _163
REMARK   67  A    between atoms: _162  and  _165
REMARK   68  A    between atoms: _165  and  _166
REMARK   69  A    between atoms: _171  and  _172
REMARK   70  A    between atoms: _174  and  _176
REMARK   71  A    between atoms: _176  and  _177
REMARK   72  A    between atoms: _176  and  _179
REMARK   73  A    between atoms: _179  and  _180
REMARK   74  A    between atoms: _183  and  _185
REMARK   75  A    between atoms: _185  and  _186
REMARK   76  A    between atoms: _185  and  _188
REMARK   77  A    between atoms: _191  and  _193
REMARK   78  A    between atoms: _193  and  _194
REMARK   79  A    between atoms: _193  and  _196
REMARK   80  A    between atoms: _196  and  _197
REMARK   81  A    between atoms: _197  and  _198
REMARK   82  A    between atoms: _198  and  _199
REMARK   83  A    between atoms: _208  and  _210
REMARK   84  A    between atoms: _210  and  _211
REMARK   85  A    between atoms: _210  and  _213
REMARK   86  A    between atoms: _213  and  _214
REMARK   87  A    between atoms: _217  and  _219
REMARK   88  A    between atoms: _219  and  _220
REMARK   89  A    between atoms: _219  and  _222
REMARK   90  A    between atoms: _225  and  _227
REMARK   91  A    between atoms: _227  and  _228
REMARK   92  A    between atoms: _231  and  _233
REMARK   93  A    between atoms: _233  and  _234
REMARK   94  A    between atoms: _236  and  _238
REMARK   95  A    between atoms: _238  and  _239
REMARK   96  A    between atoms: _238  and  _241
REMARK   97  A    between atoms: _241  and  _242
REMARK   98  A    between atoms: _247  and  _249
REMARK   99  A    between atoms: _249  and  _250
REMARK  100  A    between atoms: _249  and  _252
REMARK  101  A    between atoms: _252  and  _253
REMARK  102  A    between atoms: _253  and  _254
REMARK  103  A    between atoms: _254  and  _255
REMARK  104  A    between atoms: _264  and  _266
REMARK  105  A    between atoms: _266  and  _267
REMARK  106  A    between atoms: _266  and  _269
REMARK  107  A    between atoms: _269  and  _270
REMARK  108  A    between atoms: _273  and  _275
REMARK  109  A    between atoms: _275  and  _276
REMARK  110  A    between atoms: _275  and  _278
REMARK  111  A    between atoms: _278  and  _279
REMARK  112  A    between atoms: _281  and  _283
REMARK  113  A    between atoms: _283  and  _284
REMARK  114  A    between atoms: _283  and  _286
REMARK  115  A    between atoms: _286  and  _287
REMARK  116  A    between atoms: _287  and  _390
REMARK  117  A    between atoms: _288  and  _290
REMARK  118  A    between atoms: _290  and  _291
REMARK  119  A    between atoms: _290  and  _293
REMARK  120  A    between atoms: _293  and  _294
REMARK  121  A    between atoms: _294  and  _295
REMARK  122  A    between atoms: _300  and  _302
REMARK  123  A    between atoms: _302  and  _303
REMARK  124  A    between atoms: _305  and  _307
REMARK  125  A    between atoms: _307  and  _308
REMARK  126  A    between atoms: _307  and  _310
REMARK  127  A    between atoms: _310  and  _311
REMARK  128  A    between atoms: _314  and  _316
REMARK  129  A    between atoms: _316  and  _317
REMARK  130  A    between atoms: _316  and  _319
REMARK  131  A    between atoms: _319  and  _320
REMARK  132  A    between atoms: _322  and  _324
REMARK  133  A    between atoms: _324  and  _325
REMARK  134  A    between atoms: _327  and  _329
REMARK  135  A    between atoms: _329  and  _330
REMARK  136  A    between atoms: _332  and  _334
REMARK  137  A    between atoms: _334  and  _335
REMARK  138  A    between atoms: _334  and  _337
REMARK  139  A    between atoms: _340  and  _342
REMARK  140  A    between atoms: _342  and  _343
REMARK  141  A    between atoms: _342  and  _345
REMARK  142  A    between atoms: _345  and  _346
REMARK  143  A    between atoms: _348  and  _350
REMARK  144  A    between atoms: _350  and  _351
REMARK  145  A    between atoms: _350  and  _353
REMARK  146  A    between atoms: _353  and  _354
REMARK  147  A    between atoms: _364  and  _366
REMARK  148  A    between atoms: _366  and  _367
REMARK  149  A    between atoms: _369  and  _371
REMARK  150  A    between atoms: _371  and  _372
REMARK  151  A    between atoms: _371  and  _374
REMARK  152  A    between atoms: _374  and  _375
REMARK  153  A    between atoms: _375  and  _376
REMARK  154  A    between atoms: _379  and  _381
REMARK  155  A    between atoms: _381  and  _382
REMARK  156  A    between atoms: _384  and  _386
REMARK  157  A    between atoms: _386  and  _387
REMARK  158  A    between atoms: _386  and  _389
REMARK  159  A    between atoms: _389  and  _390
REMARK  160  A    between atoms: _391  and  _393
REMARK  161  A    between atoms: _393  and  _394
REMARK  162  A    between atoms: _397  and  _399
REMARK  163  A    between atoms: _399  and  _400
REMARK  164  A    between atoms: _399  and  _402
REMARK  165  A    between atoms: _402  and  _403
REMARK  166  A    between atoms: _403  and  _404
REMARK  167  A    between atoms: _409  and  _411
REMARK  168  A    between atoms: _411  and  _412
REMARK  169  A    between atoms: _411  and  _414
REMARK  170  A    between atoms: _414  and  _415
REMARK  171  A    between atoms: _420  and  _422
REMARK  172  A    between atoms: _422  and  _423
REMARK  173  A    between atoms: _422  and  _425
REMARK  174  A    between atoms: _425  and  _426
REMARK  175  A    between atoms: _426  and  _427
REMARK  176  A    between atoms: _427  and  _428
REMARK  177  A    between atoms: _438  and  _439
REMARK  178  A    between atoms: _444  and  _446
REMARK  179  A    between atoms: _446  and  _447
REMARK  180  A    between atoms: _449  and  _451
REMARK  181  A    between atoms: _451  and  _452
REMARK  182  A    between atoms: _451  and  _454
REMARK  183  A    between atoms: _454  and  _455
REMARK  184  A    between atoms: _458  and  _460
REMARK  185  A    between atoms: _460  and  _461
REMARK  186  A    between atoms: _460  and  _463
REMARK  187  A    between atoms: _463  and  _464
REMARK  188  A    between atoms: _469  and  _470
REMARK  189  A    between atoms: _472  and  _474
REMARK  190  A    between atoms: _474  and  _475
REMARK  191  A    between atoms: _478  and  _479
REMARK  192  A    between atoms: _484  and  _486
REMARK  193  A    between atoms: _486  and  _487
REMARK  194  A    between atoms: _486  and  _489
REMARK  195  A    between atoms: _489  and  _490
REMARK  196  A    between atoms: _493  and  _495
REMARK  197  A    between atoms: _495  and  _496
REMARK  198  A    between atoms: _495  and  _498
REMARK  199  A    between atoms: _501  and  _503
REMARK  200  A    between atoms: _503  and  _504
REMARK  201  A    between atoms: _503  and  _506
REMARK  202  A    between atoms: _506  and  _507
REMARK  203  A    between atoms: _513  and  _515
REMARK  204  A    between atoms: _515  and  _516
REMARK  205  A    between atoms: _515  and  _518
REMARK  206  A    between atoms: _518  and  _519
REMARK  207  A    between atoms: _524  and  _525
REMARK  208  A    between atoms: _527  and  _529
REMARK  209  A    between atoms: _529  and  _530
REMARK  210  A    between atoms: _529  and  _532
REMARK  211  A    between atoms: _532  and  _533
REMARK  212  A    between atoms: _536  and  _538
REMARK  213  A    between atoms: _538  and  _539
REMARK  214  A    between atoms: _542  and  _544
REMARK  215  A    between atoms: _544  and  _545
REMARK  216  A    between atoms: _544  and  _547
REMARK  217  A    between atoms: _547  and  _548
REMARK  218  A    between atoms: _548  and  _549
REMARK  219  A    between atoms: _554  and  _556
REMARK  220  A    between atoms: _556  and  _557
REMARK  221  A    between atoms: _556  and  _559
REMARK  222  A    between atoms: _559  and  _560
REMARK                            x       y       z     vdW  Elec       q    Type
REMARK                         _______ _______ _______ _____ _____    ______ ____
ROOT
ATOM      1  O   HOH     1      33.667  75.017  89.589  0.00  0.00    +0.000 OA
ENDROOT
TORSDOF 0
REMARK  Name = ../refined-set-2016/2za5/2za5_pocket.pdb
REMARK  222 active torsions:
REMARK  status: ('A' for Active; 'I' for Inactive)
REMARK    1  A    between atoms: _1  and  _5
REMARK    2  A    between atoms: _5  and  _6
REMARK    3  A    between atoms: _5  and  _8
REMARK    4  A    between atoms: _8  and  _9
REMARK    5  A    between atoms: _12  and  _14
REMARK    6  A    between atoms: _14  and  _15
REMARK    7  A    between atoms: _14  and  _17
REMARK    8  A    between atoms: _20  and  _22
REMARK    9  A    between atoms: _22  and  _23
REMARK   10  A    between atoms: _22  and  _25
REMARK   11  A    between atoms: _27  and  _29
REMARK   12  A    between atoms: _29  and  _30
REMARK   13  A    between atoms: _29  and  _32
REMARK   14  A    between atoms: _32  and  _33
REMARK   15  A    between atoms: _38  and  _40
REMARK   16  A    between atoms: _40  and  _41
REMARK   17  A    between atoms: _44  and  _46
REMARK   18  A    between atoms: _46  and  _47
REMARK   19  A    between atoms: _46  and  _49
REMARK   20  A    between atoms: _49  and  _50
REMARK   21  A    between atoms: _50  and  _51
REMARK   22  A    between atoms: _56  and  _58
REMARK   23  A    between atoms: _58  and  _59
REMARK   24  A    between atoms: _58  and  _61
REMARK   25  A    between atoms: _64  and  _66
REMARK   26  A    between atoms: _66  and  _67
REMARK   27  A    between atoms: _66  and  _69
REMARK   28  A    between atoms: _69  and  _70
REMARK   29  A    between atoms: _73  and  _75
REMARK   30  A    between atoms: _75  and  _76
REMARK   31  A    between atoms: _75  and  _78
REMARK   32  A    between atoms: _78  and  _79
REMARK   33  A    between atoms: _84  and  _86
REMARK   34  A    between atoms: _86  and  _87
REMARK   35  A    between atoms: _86  and  _89
REMARK   36  A    between atoms: _89  and  _90
REMARK   37  A    between atoms: _93  and  _95
REMARK   38  A    between atoms: _95  and  _96
REMARK   39  A    between atoms: _95  and  _98
REMARK   40  A    between atoms: _98  and  _99
REMARK   41  A    between atoms: _102  and  _104
REMARK   42  A    between atoms: _104  and  _105
REMARK   43  A    between atoms: _104  and  _107
REMARK   44  A    between atoms: _107  and  _108
REMARK   45  A    between atoms: _108  and  _109
REMARK   46  A    between atoms: _109  and  _110
REMARK   47  A    between atoms: _110  and  _111
REMARK   48  A    between atoms: _115  and  _117
REMARK   49  A    between atoms: _117  and  _118
REMARK   50  A    between atoms: _117  and  _120
REMARK   51  A    between atoms: _120  and  _121
REMARK   52  A    between atoms: _126  and  _127
REMARK   53  A    between atoms: _129  and  _131
REMARK   54  A    between atoms: _131  and  _132
REMARK   55  A    between atoms: _131  and  _134
REMARK   56  A    between atoms: _134  and  _135
REMARK   57  A    between atoms: _140  and  _142
REMARK   58  A    between atoms: _142  and  _143
REMARK   59  A    between atoms: _142  and  _145
REMARK   60  A    between atoms: _145  and  _146
REMARK   61  A    between atoms: _149  and  _151
REMARK   62  A    between atoms: _151  and  _152
REMARK   63  A    between atoms: _154  and  _156
REMARK   64  A    between atoms: _156  and  _157
REMARK   65  A    between atoms: _160  and  _162
REMARK   66  A    between atoms: _162  and  _163
REMARK   67  A    between atoms: _162  and  _165
REMARK   68  A    between atoms: _165  and  _166
REMARK   69  A    between atoms: _171  and  _172
REMARK   70  A    between atoms: _174  and  _176
REMARK   71  A    between atoms: _176  and  _177
REMARK   72  A    between atoms: _176  and  _179
REMARK   73  A    between atoms: _179  and  _180
REMARK   74  A    between atoms: _183  and  _185
REMARK   75  A    between atoms: _185  and  _186
REMARK   76  A    between atoms: _185  and  _188
REMARK   77  A    between atoms: _191  and  _193
REMARK   78  A    between atoms: _193  and  _194
REMARK   79  A    between atoms: _193  and  _196
REMARK   80  A    between atoms: _196  and  _197
REMARK   81  A    between atoms: _197  and  _198
REMARK   82  A    between atoms: _198  and  _199
REMARK   83  A    between atoms: _208  and  _210
REMARK   84  A    between atoms: _210  and  _211
REMARK   85  A    between atoms: _210  and  _213
REMARK   86  A    between atoms: _213  and  _214
REMARK   87  A    between atoms: _217  and  _219
REMARK   88  A    between atoms: _219  and  _220
REMARK   89  A    between atoms: _219  and  _222
REMARK   90  A    between atoms: _225  and  _227
REMARK   91  A    between atoms: _227  and  _228
REMARK   92  A    between atoms: _231  and  _233
REMARK   93  A    between atoms: _233  and  _234
REMARK   94  A    between atoms: _236  and  _238
REMARK   95  A    between atoms: _238  and  _239
REMARK   96  A    between atoms: _238  and  _241
REMARK   97  A    between atoms: _241  and  _242
REMARK   98  A    between atoms: _247  and  _249
REMARK   99  A    between atoms: _249  and  _250
REMARK  100  A    between atoms: _249  and  _252
REMARK  101  A    between atoms: _252  and  _253
REMARK  102  A    between atoms: _253  and  _254
REMARK  103  A    between atoms: _254  and  _255
REMARK  104  A    between atoms: _264  and  _266
REMARK  105  A    between atoms: _266  and  _267
REMARK  106  A    between atoms: _266  and  _269
REMARK  107  A    between atoms: _269  and  _270
REMARK  108  A    between atoms: _273  and  _275
REMARK  109  A    between atoms: _275  and  _276
REMARK  110  A    between atoms: _275  and  _278
REMARK  111  A    between atoms: _278  and  _279
REMARK  112  A    between atoms: _281  and  _283
REMARK  113  A    between atoms: _283  and  _284
REMARK  114  A    between atoms: _283  and  _286
REMARK  115  A    between atoms: _286  and  _287
REMARK  116  A    between atoms: _287  and  _390
REMARK  117  A    between atoms: _288  and  _290
REMARK  118  A    between atoms: _290  and  _291
REMARK  119  A    between atoms: _290  and  _293
REMARK  120  A    between atoms: _293  and  _294
REMARK  121  A    between atoms: _294  and  _295
REMARK  122  A    between atoms: _300  and  _302
REMARK  123  A    between atoms: _302  and  _303
REMARK  124  A    between atoms: _305  and  _307
REMARK  125  A    between atoms: _307  and  _308
REMARK  126  A    between atoms: _307  and  _310
REMARK  127  A    between atoms: _310  and  _311
REMARK  128  A    between atoms: _314  and  _316
REMARK  129  A    between atoms: _316  and  _317
REMARK  130  A    between atoms: _316  and  _319
REMARK  131  A    between atoms: _319  and  _320
REMARK  132  A    between atoms: _322  and  _324
REMARK  133  A    between atoms: _324  and  _325
REMARK  134  A    between atoms: _327  and  _329
REMARK  135  A    between atoms: _329  and  _330
REMARK  136  A    between atoms: _332  and  _334
REMARK  137  A    between atoms: _334  and  _335
REMARK  138  A    between atoms: _334  and  _337
REMARK  139  A    between atoms: _340  and  _342
REMARK  140  A    between atoms: _342  and  _343
REMARK  141  A    between atoms: _342  and  _345
REMARK  142  A    between atoms: _345  and  _346
REMARK  143  A    between atoms: _348  and  _350
REMARK  144  A    between atoms: _350  and  _351
REMARK  145  A    between atoms: _350  and  _353
REMARK  146  A    between atoms: _353  and  _354
REMARK  147  A    between atoms: _364  and  _366
REMARK  148  A    between atoms: _366  and  _367
REMARK  149  A    between atoms: _369  and  _371
REMARK  150  A    between atoms: _371  and  _372
REMARK  151  A    between atoms: _371  and  _374
REMARK  152  A    between atoms: _374  and  _375
REMARK  153  A    between atoms: _375  and  _376
REMARK  154  A    between atoms: _379  and  _381
REMARK  155  A    between atoms: _381  and  _382
REMARK  156  A    between atoms: _384  and  _386
REMARK  157  A    between atoms: _386  and  _387
REMARK  158  A    between atoms: _386  and  _389
REMARK  159  A    between atoms: _389  and  _390
REMARK  160  A    between atoms: _391  and  _393
REMARK  161  A    between atoms: _393  and  _394
REMARK  162  A    between atoms: _397  and  _399
REMARK  163  A    between atoms: _399  and  _400
REMARK  164  A    between atoms: _399  and  _402
REMARK  165  A    between atoms: _402  and  _403
REMARK  166  A    between atoms: _403  and  _404
REMARK  167  A    between atoms: _409  and  _411
REMARK  168  A    between atoms: _411  and  _412
REMARK  169  A    between atoms: _411  and  _414
REMARK  170  A    between atoms: _414  and  _415
REMARK  171  A    between atoms: _420  and  _422
REMARK  172  A    between atoms: _422  and  _423
REMARK  173  A    between atoms: _422  and  _425
REMARK  174  A    between atoms: _425  and  _426
REMARK  175  A    between atoms: _426  and  _427
REMARK  176  A    between atoms: _427  and  _428
REMARK  177  A    between atoms: _438  and  _439
REMARK  178  A    between atoms: _444  and  _446
REMARK  179  A    between atoms: _446  and  _447
REMARK  180  A    between atoms: _449  and  _451
REMARK  181  A    between atoms: _451  and  _452
REMARK  182  A    between atoms: _451  and  _454
REMARK  183  A    between atoms: _454  and  _455
REMARK  184  A    between atoms: _458  and  _460
REMARK  185  A    between atoms: _460  and  _461
REMARK  186  A    between atoms: _460  and  _463
REMARK  187  A    between atoms: _463  and  _464
REMARK  188  A    between atoms: _469  and  _470
REMARK  189  A    between atoms: _472  and  _474
REMARK  190  A    between atoms: _474  and  _475
REMARK  191  A    between atoms: _478  and  _479
REMARK  192  A    between atoms: _484  and  _486
REMARK  193  A    between atoms: _486  and  _487
REMARK  194  A    between atoms: _486  and  _489
REMARK  195  A    between atoms: _489  and  _490
REMARK  196  A    between atoms: _493  and  _495
REMARK  197  A    between atoms: _495  and  _496
REMARK  198  A    between atoms: _495  and  _498
REMARK  199  A    between atoms: _501  and  _503
REMARK  200  A    between atoms: _503  and  _504
REMARK  201  A    between atoms: _503  and  _506
REMARK  202  A    between atoms: _506  and  _507
REMARK  203  A    between atoms: _513  and  _515
REMARK  204  A    between atoms: _515  and  _516
REMARK  205  A    between atoms: _515  and  _518
REMARK  206  A    between atoms: _518  and  _519
REMARK  207  A    between atoms: _524  and  _525
REMARK  208  A    between atoms: _527  and  _529
REMARK  209  A    between atoms: _529  and  _530
REMARK  210  A    between atoms: _529  and  _532
REMARK  211  A    between atoms: _532  and  _533
REMARK  212  A    between atoms: _536  and  _538
REMARK  213  A    between atoms: _538  and  _539
REMARK  214  A    between atoms: _542  and  _544
REMARK  215  A    between atoms: _544  and  _545
REMARK  216  A    between atoms: _544  and  _547
REMARK  217  A    between atoms: _547  and  _548
REMARK  218  A    between atoms: _548  and  _549
REMARK  219  A    between atoms: _554  and  _556
REMARK  220  A    between atoms: _556  and  _557
REMARK  221  A    between atoms: _556  and  _559
REMARK  222  A    between atoms: _559  and  _560
REMARK                            x       y       z     vdW  Elec       q    Type
REMARK                         _______ _______ _______ _____ _____    ______ ____
ROOT
ATOM      1  O   HOH     1      35.858  73.194  83.185  0.00  0.00    +0.000 OA
ENDROOT
TORSDOF 0
REMARK  Name = ../refined-set-2016/2za5/2za5_pocket.pdb
REMARK  222 active torsions:
REMARK  status: ('A' for Active; 'I' for Inactive)
REMARK    1  A    between atoms: _1  and  _5
REMARK    2  A    between atoms: _5  and  _6
REMARK    3  A    between atoms: _5  and  _8
REMARK    4  A    between atoms: _8  and  _9
REMARK    5  A    between atoms: _12  and  _14
REMARK    6  A    between atoms: _14  and  _15
REMARK    7  A    between atoms: _14  and  _17
REMARK    8  A    between atoms: _20  and  _22
REMARK    9  A    between atoms: _22  and  _23
REMARK   10  A    between atoms: _22  and  _25
REMARK   11  A    between atoms: _27  and  _29
REMARK   12  A    between atoms: _29  and  _30
REMARK   13  A    between atoms: _29  and  _32
REMARK   14  A    between atoms: _32  and  _33
REMARK   15  A    between atoms: _38  and  _40
REMARK   16  A    between atoms: _40  and  _41
REMARK   17  A    between atoms: _44  and  _46
REMARK   18  A    between atoms: _46  and  _47
REMARK   19  A    between atoms: _46  and  _49
REMARK   20  A    between atoms: _49  and  _50
REMARK   21  A    between atoms: _50  and  _51
REMARK   22  A    between atoms: _56  and  _58
REMARK   23  A    between atoms: _58  and  _59
REMARK   24  A    between atoms: _58  and  _61
REMARK   25  A    between atoms: _64  and  _66
REMARK   26  A    between atoms: _66  and  _67
REMARK   27  A    between atoms: _66  and  _69
REMARK   28  A    between atoms: _69  and  _70
REMARK   29  A    between atoms: _73  and  _75
REMARK   30  A    between atoms: _75  and  _76
REMARK   31  A    between atoms: _75  and  _78
REMARK   32  A    between atoms: _78  and  _79
REMARK   33  A    between atoms: _84  and  _86
REMARK   34  A    between atoms: _86  and  _87
REMARK   35  A    between atoms: _86  and  _89
REMARK   36  A    between atoms: _89  and  _90
REMARK   37  A    between atoms: _93  and  _95
REMARK   38  A    between atoms: _95  and  _96
REMARK   39  A    between atoms: _95  and  _98
REMARK   40  A    between atoms: _98  and  _99
REMARK   41  A    between atoms: _102  and  _104
REMARK   42  A    between atoms: _104  and  _105
REMARK   43  A    between atoms: _104  and  _107
REMARK   44  A    between atoms: _107  and  _108
REMARK   45  A    between atoms: _108  and  _109
REMARK   46  A    between atoms: _109  and  _110
REMARK   47  A    between atoms: _110  and  _111
REMARK   48  A    between atoms: _115  and  _117
REMARK   49  A    between atoms: _117  and  _118
REMARK   50  A    between atoms: _117  and  _120
REMARK   51  A    between atoms: _120  and  _121
REMARK   52  A    between atoms: _126  and  _127
REMARK   53  A    between atoms: _129  and  _131
REMARK   54  A    between atoms: _131  and  _132
REMARK   55  A    between atoms: _131  and  _134
REMARK   56  A    between atoms: _134  and  _135
REMARK   57  A    between atoms: _140  and  _142
REMARK   58  A    between atoms: _142  and  _143
REMARK   59  A    between atoms: _142  and  _145
REMARK   60  A    between atoms: _145  and  _146
REMARK   61  A    between atoms: _149  and  _151
REMARK   62  A    between atoms: _151  and  _152
REMARK   63  A    between atoms: _154  and  _156
REMARK   64  A    between atoms: _156  and  _157
REMARK   65  A    between atoms: _160  and  _162
REMARK   66  A    between atoms: _162  and  _163
REMARK   67  A    between atoms: _162  and  _165
REMARK   68  A    between atoms: _165  and  _166
REMARK   69  A    between atoms: _171  and  _172
REMARK   70  A    between atoms: _174  and  _176
REMARK   71  A    between atoms: _176  and  _177
REMARK   72  A    between atoms: _176  and  _179
REMARK   73  A    between atoms: _179  and  _180
REMARK   74  A    between atoms: _183  and  _185
REMARK   75  A    between atoms: _185  and  _186
REMARK   76  A    between atoms: _185  and  _188
REMARK   77  A    between atoms: _191  and  _193
REMARK   78  A    between atoms: _193  and  _194
REMARK   79  A    between atoms: _193  and  _196
REMARK   80  A    between atoms: _196  and  _197
REMARK   81  A    between atoms: _197  and  _198
REMARK   82  A    between atoms: _198  and  _199
REMARK   83  A    between atoms: _208  and  _210
REMARK   84  A    between atoms: _210  and  _211
REMARK   85  A    between atoms: _210  and  _213
REMARK   86  A    between atoms: _213  and  _214
REMARK   87  A    between atoms: _217  and  _219
REMARK   88  A    between atoms: _219  and  _220
REMARK   89  A    between atoms: _219  and  _222
REMARK   90  A    between atoms: _225  and  _227
REMARK   91  A    between atoms: _227  and  _228
REMARK   92  A    between atoms: _231  and  _233
REMARK   93  A    between atoms: _233  and  _234
REMARK   94  A    between atoms: _236  and  _238
REMARK   95  A    between atoms: _238  and  _239
REMARK   96  A    between atoms: _238  and  _241
REMARK   97  A    between atoms: _241  and  _242
REMARK   98  A    between atoms: _247  and  _249
REMARK   99  A    between atoms: _249  and  _250
REMARK  100  A    between atoms: _249  and  _252
REMARK  101  A    between atoms: _252  and  _253
REMARK  102  A    between atoms: _253  and  _254
REMARK  103  A    between atoms: _254  and  _255
REMARK  104  A    between atoms: _264  and  _266
REMARK  105  A    between atoms: _266  and  _267
REMARK  106  A    between atoms: _266  and  _269
REMARK  107  A    between atoms: _269  and  _270
REMARK  108  A    between atoms: _273  and  _275
REMARK  109  A    between atoms: _275  and  _276
REMARK  110  A    between atoms: _275  and  _278
REMARK  111  A    between atoms: _278  and  _279
REMARK  112  A    between atoms: _281  and  _283
REMARK  113  A    between atoms: _283  and  _284
REMARK  114  A    between atoms: _283  and  _286
REMARK  115  A    between atoms: _286  and  _287
REMARK  116  A    between atoms: _287  and  _390
REMARK  117  A    between atoms: _288  and  _290
REMARK  118  A    between atoms: _290  and  _291
REMARK  119  A    between atoms: _290  and  _293
REMARK  120  A    between atoms: _293  and  _294
REMARK  121  A    between atoms: _294  and  _295
REMARK  122  A    between atoms: _300  and  _302
REMARK  123  A    between atoms: _302  and  _303
REMARK  124  A    between atoms: _305  and  _307
REMARK  125  A    between atoms: _307  and  _308
REMARK  126  A    between atoms: _307  and  _310
REMARK  127  A    between atoms: _310  and  _311
REMARK  128  A    between atoms: _314  and  _316
REMARK  129  A    between atoms: _316  and  _317
REMARK  130  A    between atoms: _316  and  _319
REMARK  131  A    between atoms: _319  and  _320
REMARK  132  A    between atoms: _322  and  _324
REMARK  133  A    between atoms: _324  and  _325
REMARK  134  A    between atoms: _327  and  _329
REMARK  135  A    between atoms: _329  and  _330
REMARK  136  A    between atoms: _332  and  _334
REMARK  137  A    between atoms: _334  and  _335
REMARK  138  A    between atoms: _334  and  _337
REMARK  139  A    between atoms: _340  and  _342
REMARK  140  A    between atoms: _342  and  _343
REMARK  141  A    between atoms: _342  and  _345
REMARK  142  A    between atoms: _345  and  _346
REMARK  143  A    between atoms: _348  and  _350
REMARK  144  A    between atoms: _350  and  _351
REMARK  145  A    between atoms: _350  and  _353
REMARK  146  A    between atoms: _353  and  _354
REMARK  147  A    between atoms: _364  and  _366
REMARK  148  A    between atoms: _366  and  _367
REMARK  149  A    between atoms: _369  and  _371
REMARK  150  A    between atoms: _371  and  _372
REMARK  151  A    between atoms: _371  and  _374
REMARK  152  A    between atoms: _374  and  _375
REMARK  153  A    between atoms: _375  and  _376
REMARK  154  A    between atoms: _379  and  _381
REMARK  155  A    between atoms: _381  and  _382
REMARK  156  A    between atoms: _384  and  _386
REMARK  157  A    between atoms: _386  and  _387
REMARK  158  A    between atoms: _386  and  _389
REMARK  159  A    between atoms: _389  and  _390
REMARK  160  A    between atoms: _391  and  _393
REMARK  161  A    between atoms: _393  and  _394
REMARK  162  A    between atoms: _397  and  _399
REMARK  163  A    between atoms: _399  and  _400
REMARK  164  A    between atoms: _399  and  _402
REMARK  165  A    between atoms: _402  and  _403
REMARK  166  A    between atoms: _403  and  _404
REMARK  167  A    between atoms: _409  and  _411
REMARK  168  A    between atoms: _411  and  _412
REMARK  169  A    between atoms: _411  and  _414
REMARK  170  A    between atoms: _414  and  _415
REMARK  171  A    between atoms: _420  and  _422
REMARK  172  A    between atoms: _422  and  _423
REMARK  173  A    between atoms: _422  and  _425
REMARK  174  A    between atoms: _425  and  _426
REMARK  175  A    between atoms: _426  and  _427
REMARK  176  A    between atoms: _427  and  _428
REMARK  177  A    between atoms: _438  and  _439
REMARK  178  A    between atoms: _444  and  _446
REMARK  179  A    between atoms: _446  and  _447
REMARK  180  A    between atoms: _449  and  _451
REMARK  181  A    between atoms: _451  and  _452
REMARK  182  A    between atoms: _451  and  _454
REMARK  183  A    between atoms: _454  and  _455
REMARK  184  A    between atoms: _458  and  _460
REMARK  185  A    between atoms: _460  and  _461
REMARK  186  A    between atoms: _460  and  _463
REMARK  187  A    between atoms: _463  and  _464
REMARK  188  A    between atoms: _469  and  _470
REMARK  189  A    between atoms: _472  and  _474
REMARK  190  A    between atoms: _474  and  _475
REMARK  191  A    between atoms: _478  and  _479
REMARK  192  A    between atoms: _484  and  _486
REMARK  193  A    between atoms: _486  and  _487
REMARK  194  A    between atoms: _486  and  _489
REMARK  195  A    between atoms: _489  and  _490
REMARK  196  A    between atoms: _493  and  _495
REMARK  197  A    between atoms: _495  and  _496
REMARK  198  A    between atoms: _495  and  _498
REMARK  199  A    between atoms: _501  and  _503
REMARK  200  A    between atoms: _503  and  _504
REMARK  201  A    between atoms: _503  and  _506
REMARK  202  A    between atoms: _506  and  _507
REMARK  203  A    between atoms: _513  and  _515
REMARK  204  A    between atoms: _515  and  _516
REMARK  205  A    between atoms: _515  and  _518
REMARK  206  A    between atoms: _518  and  _519
REMARK  207  A    between atoms: _524  and  _525
REMARK  208  A    between atoms: _527  and  _529
REMARK  209  A    between atoms: _529  and  _530
REMARK  210  A    between atoms: _529  and  _532
REMARK  211  A    between atoms: _532  and  _533
REMARK  212  A    between atoms: _536  and  _538
REMARK  213  A    between atoms: _538  and  _539
REMARK  214  A    between atoms: _542  and  _544
REMARK  215  A    between atoms: _544  and  _545
REMARK  216  A    between atoms: _544  and  _547
REMARK  217  A    between atoms: _547  and  _548
REMARK  218  A    between atoms: _548  and  _549
REMARK  219  A    between atoms: _554  and  _556
REMARK  220  A    between atoms: _556  and  _557
REMARK  221  A    between atoms: _556  and  _559
REMARK  222  A    between atoms: _559  and  _560
REMARK                            x       y       z     vdW  Elec       q    Type
REMARK                         _______ _______ _______ _____ _____    ______ ____
ROOT
ATOM      1  O   HOH     1      34.941  71.611  86.630  0.00  0.00    +0.000 OA
ENDROOT
TORSDOF 0
REMARK  Name = ../refined-set-2016/2za5/2za5_pocket.pdb
REMARK  222 active torsions:
REMARK  status: ('A' for Active; 'I' for Inactive)
REMARK    1  A    between atoms: _1  and  _5
REMARK    2  A    between atoms: _5  and  _6
REMARK    3  A    between atoms: _5  and  _8
REMARK    4  A    between atoms: _8  and  _9
REMARK    5  A    between atoms: _12  and  _14
REMARK    6  A    between atoms: _14  and  _15
REMARK    7  A    between atoms: _14  and  _17
REMARK    8  A    between atoms: _20  and  _22
REMARK    9  A    between atoms: _22  and  _23
REMARK   10  A    between atoms: _22  and  _25
REMARK   11  A    between atoms: _27  and  _29
REMARK   12  A    between atoms: _29  and  _30
REMARK   13  A    between atoms: _29  and  _32
REMARK   14  A    between atoms: _32  and  _33
REMARK   15  A    between atoms: _38  and  _40
REMARK   16  A    between atoms: _40  and  _41
REMARK   17  A    between atoms: _44  and  _46
REMARK   18  A    between atoms: _46  and  _47
REMARK   19  A    between atoms: _46  and  _49
REMARK   20  A    between atoms: _49  and  _50
REMARK   21  A    between atoms: _50  and  _51
REMARK   22  A    between atoms: _56  and  _58
REMARK   23  A    between atoms: _58  and  _59
REMARK   24  A    between atoms: _58  and  _61
REMARK   25  A    between atoms: _64  and  _66
REMARK   26  A    between atoms: _66  and  _67
REMARK   27  A    between atoms: _66  and  _69
REMARK   28  A    between atoms: _69  and  _70
REMARK   29  A    between atoms: _73  and  _75
REMARK   30  A    between atoms: _75  and  _76
REMARK   31  A    between atoms: _75  and  _78
REMARK   32  A    between atoms: _78  and  _79
REMARK   33  A    between atoms: _84  and  _86
REMARK   34  A    between atoms: _86  and  _87
REMARK   35  A    between atoms: _86  and  _89
REMARK   36  A    between atoms: _89  and  _90
REMARK   37  A    between atoms: _93  and  _95
REMARK   38  A    between atoms: _95  and  _96
REMARK   39  A    between atoms: _95  and  _98
REMARK   40  A    between atoms: _98  and  _99
REMARK   41  A    between atoms: _102  and  _104
REMARK   42  A    between atoms: _104  and  _105
REMARK   43  A    between atoms: _104  and  _107
REMARK   44  A    between atoms: _107  and  _108
REMARK   45  A    between atoms: _108  and  _109
REMARK   46  A    between atoms: _109  and  _110
REMARK   47  A    between atoms: _110  and  _111
REMARK   48  A    between atoms: _115  and  _117
REMARK   49  A    between atoms: _117  and  _118
REMARK   50  A    between atoms: _117  and  _120
REMARK   51  A    between atoms: _120  and  _121
REMARK   52  A    between atoms: _126  and  _127
REMARK   53  A    between atoms: _129  and  _131
REMARK   54  A    between atoms: _131  and  _132
REMARK   55  A    between atoms: _131  and  _134
REMARK   56  A    between atoms: _134  and  _135
REMARK   57  A    between atoms: _140  and  _142
REMARK   58  A    between atoms: _142  and  _143
REMARK   59  A    between atoms: _142  and  _145
REMARK   60  A    between atoms: _145  and  _146
REMARK   61  A    between atoms: _149  and  _151
REMARK   62  A    between atoms: _151  and  _152
REMARK   63  A    between atoms: _154  and  _156
REMARK   64  A    between atoms: _156  and  _157
REMARK   65  A    between atoms: _160  and  _162
REMARK   66  A    between atoms: _162  and  _163
REMARK   67  A    between atoms: _162  and  _165
REMARK   68  A    between atoms: _165  and  _166
REMARK   69  A    between atoms: _171  and  _172
REMARK   70  A    between atoms: _174  and  _176
REMARK   71  A    between atoms: _176  and  _177
REMARK   72  A    between atoms: _176  and  _179
REMARK   73  A    between atoms: _179  and  _180
REMARK   74  A    between atoms: _183  and  _185
REMARK   75  A    between atoms: _185  and  _186
REMARK   76  A    between atoms: _185  and  _188
REMARK   77  A    between atoms: _191  and  _193
REMARK   78  A    between atoms: _193  and  _194
REMARK   79  A    between atoms: _193  and  _196
REMARK   80  A    between atoms: _196  and  _197
REMARK   81  A    between atoms: _197  and  _198
REMARK   82  A    between atoms: _198  and  _199
REMARK   83  A    between atoms: _208  and  _210
REMARK   84  A    between atoms: _210  and  _211
REMARK   85  A    between atoms: _210  and  _213
REMARK   86  A    between atoms: _213  and  _214
REMARK   87  A    between atoms: _217  and  _219
REMARK   88  A    between atoms: _219  and  _220
REMARK   89  A    between atoms: _219  and  _222
REMARK   90  A    between atoms: _225  and  _227
REMARK   91  A    between atoms: _227  and  _228
REMARK   92  A    between atoms: _231  and  _233
REMARK   93  A    between atoms: _233  and  _234
REMARK   94  A    between atoms: _236  and  _238
REMARK   95  A    between atoms: _238  and  _239
REMARK   96  A    between atoms: _238  and  _241
REMARK   97  A    between atoms: _241  and  _242
REMARK   98  A    between atoms: _247  and  _249
REMARK   99  A    between atoms: _249  and  _250
REMARK  100  A    between atoms: _249  and  _252
REMARK  101  A    between atoms: _252  and  _253
REMARK  102  A    between atoms: _253  and  _254
REMARK  103  A    between atoms: _254  and  _255
REMARK  104  A    between atoms: _264  and  _266
REMARK  105  A    between atoms: _266  and  _267
REMARK  106  A    between atoms: _266  and  _269
REMARK  107  A    between atoms: _269  and  _270
REMARK  108  A    between atoms: _273  and  _275
REMARK  109  A    between atoms: _275  and  _276
REMARK  110  A    between atoms: _275  and  _278
REMARK  111  A    between atoms: _278  and  _279
REMARK  112  A    between atoms: _281  and  _283
REMARK  113  A    between atoms: _283  and  _284
REMARK  114  A    between atoms: _283  and  _286
REMARK  115  A    between atoms: _286  and  _287
REMARK  116  A    between atoms: _287  and  _390
REMARK  117  A    between atoms: _288  and  _290
REMARK  118  A    between atoms: _290  and  _291
REMARK  119  A    between atoms: _290  and  _293
REMARK  120  A    between atoms: _293  and  _294
REMARK  121  A    between atoms: _294  and  _295
REMARK  122  A    between atoms: _300  and  _302
REMARK  123  A    between atoms: _302  and  _303
REMARK  124  A    between atoms: _305  and  _307
REMARK  125  A    between atoms: _307  and  _308
REMARK  126  A    between atoms: _307  and  _310
REMARK  127  A    between atoms: _310  and  _311
REMARK  128  A    between atoms: _314  and  _316
REMARK  129  A    between atoms: _316  and  _317
REMARK  130  A    between atoms: _316  and  _319
REMARK  131  A    between atoms: _319  and  _320
REMARK  132  A    between atoms: _322  and  _324
REMARK  133  A    between atoms: _324  and  _325
REMARK  134  A    between atoms: _327  and  _329
REMARK  135  A    between atoms: _329  and  _330
REMARK  136  A    between atoms: _332  and  _334
REMARK  137  A    between atoms: _334  and  _335
REMARK  138  A    between atoms: _334  and  _337
REMARK  139  A    between atoms: _340  and  _342
REMARK  140  A    between atoms: _342  and  _343
REMARK  141  A    between atoms: _342  and  _345
REMARK  142  A    between atoms: _345  and  _346
REMARK  143  A    between atoms: _348  and  _350
REMARK  144  A    between atoms: _350  and  _351
REMARK  145  A    between atoms: _350  and  _353
REMARK  146  A    between atoms: _353  and  _354
REMARK  147  A    between atoms: _364  and  _366
REMARK  148  A    between atoms: _366  and  _367
REMARK  149  A    between atoms: _369  and  _371
REMARK  150  A    between atoms: _371  and  _372
REMARK  151  A    between atoms: _371  and  _374
REMARK  152  A    between atoms: _374  and  _375
REMARK  153  A    between atoms: _375  and  _376
REMARK  154  A    between atoms: _379  and  _381
REMARK  155  A    between atoms: _381  and  _382
REMARK  156  A    between atoms: _384  and  _386
REMARK  157  A    between atoms: _386  and  _387
REMARK  158  A    between atoms: _386  and  _389
REMARK  159  A    between atoms: _389  and  _390
REMARK  160  A    between atoms: _391  and  _393
REMARK  161  A    between atoms: _393  and  _394
REMARK  162  A    between atoms: _397  and  _399
REMARK  163  A    between atoms: _399  and  _400
REMARK  164  A    between atoms: _399  and  _402
REMARK  165  A    between atoms: _402  and  _403
REMARK  166  A    between atoms: _403  and  _404
REMARK  167  A    between atoms: _409  and  _411
REMARK  168  A    between atoms: _411  and  _412
REMARK  169  A    between atoms: _411  and  _414
REMARK  170  A    between atoms: _414  and  _415
REMARK  171  A    between atoms: _420  and  _422
REMARK  172  A    between atoms: _422  and  _423
REMARK  173  A    between atoms: _422  and  _425
REMARK  174  A    between atoms: _425  and  _426
REMARK  175  A    between atoms: _426  and  _427
REMARK  176  A    between atoms: _427  and  _428
REMARK  177  A    between atoms: _438  and  _439
REMARK  178  A    between atoms: _444  and  _446
REMARK  179  A    between atoms: _446  and  _447
REMARK  180  A    between atoms: _449  and  _451
REMARK  181  A    between atoms: _451  and  _452
REMARK  182  A    between atoms: _451  and  _454
REMARK  183  A    between atoms: _454  and  _455
REMARK  184  A    between atoms: _458  and  _460
REMARK  185  A    between atoms: _460  and  _461
REMARK  186  A    between atoms: _460  and  _463
REMARK  187  A    between atoms: _463  and  _464
REMARK  188  A    between atoms: _469  and  _470
REMARK  189  A    between atoms: _472  and  _474
REMARK  190  A    between atoms: _474  and  _475
REMARK  191  A    between atoms: _478  and  _479
REMARK  192  A    between atoms: _484  and  _486
REMARK  193  A    between atoms: _486  and  _487
REMARK  194  A    between atoms: _486  and  _489
REMARK  195  A    between atoms: _489  and  _490
REMARK  196  A    between atoms: _493  and  _495
REMARK  197  A    between atoms: _495  and  _496
REMARK  198  A    between atoms: _495  and  _498
REMARK  199  A    between atoms: _501  and  _503
REMARK  200  A    between atoms: _503  and  _504
REMARK  201  A    between atoms: _503  and  _506
REMARK  202  A    between atoms: _506  and  _507
REMARK  203  A    between atoms: _513  and  _515
REMARK  204  A    between atoms: _515  and  _516
REMARK  205  A    between atoms: _515  and  _518
REMARK  206  A    between atoms: _518  and  _519
REMARK  207  A    between atoms: _524  and  _525
REMARK  208  A    between atoms: _527  and  _529
REMARK  209  A    between atoms: _529  and  _530
REMARK  210  A    between atoms: _529  and  _532
REMARK  211  A    between atoms: _532  and  _533
REMARK  212  A    between atoms: _536  and  _538
REMARK  213  A    between atoms: _538  and  _539
REMARK  214  A    between atoms: _542  and  _544
REMARK  215  A    between atoms: _544  and  _545
REMARK  216  A    between atoms: _544  and  _547
REMARK  217  A    between atoms: _547  and  _548
REMARK  218  A    between atoms: _548  and  _549
REMARK  219  A    between atoms: _554  and  _556
REMARK  220  A    between atoms: _556  and  _557
REMARK  221  A    between atoms: _556  and  _559
REMARK  222  A    between atoms: _559  and  _560
REMARK                            x       y       z     vdW  Elec       q    Type
REMARK                         _______ _______ _______ _____ _____    ______ ____
ROOT
ATOM      1  O   HOH     1      37.090  65.144  78.150  0.00  0.00    +0.000 OA
ENDROOT
TORSDOF 0
REMARK  Name = ../refined-set-2016/2za5/2za5_pocket.pdb
REMARK  222 active torsions:
REMARK  status: ('A' for Active; 'I' for Inactive)
REMARK    1  A    between atoms: _1  and  _5
REMARK    2  A    between atoms: _5  and  _6
REMARK    3  A    between atoms: _5  and  _8
REMARK    4  A    between atoms: _8  and  _9
REMARK    5  A    between atoms: _12  and  _14
REMARK    6  A    between atoms: _14  and  _15
REMARK    7  A    between atoms: _14  and  _17
REMARK    8  A    between atoms: _20  and  _22
REMARK    9  A    between atoms: _22  and  _23
REMARK   10  A    between atoms: _22  and  _25
REMARK   11  A    between atoms: _27  and  _29
REMARK   12  A    between atoms: _29  and  _30
REMARK   13  A    between atoms: _29  and  _32
REMARK   14  A    between atoms: _32  and  _33
REMARK   15  A    between atoms: _38  and  _40
REMARK   16  A    between atoms: _40  and  _41
REMARK   17  A    between atoms: _44  and  _46
REMARK   18  A    between atoms: _46  and  _47
REMARK   19  A    between atoms: _46  and  _49
REMARK   20  A    between atoms: _49  and  _50
REMARK   21  A    between atoms: _50  and  _51
REMARK   22  A    between atoms: _56  and  _58
REMARK   23  A    between atoms: _58  and  _59
REMARK   24  A    between atoms: _58  and  _61
REMARK   25  A    between atoms: _64  and  _66
REMARK   26  A    between atoms: _66  and  _67
REMARK   27  A    between atoms: _66  and  _69
REMARK   28  A    between atoms: _69  and  _70
REMARK   29  A    between atoms: _73  and  _75
REMARK   30  A    between atoms: _75  and  _76
REMARK   31  A    between atoms: _75  and  _78
REMARK   32  A    between atoms: _78  and  _79
REMARK   33  A    between atoms: _84  and  _86
REMARK   34  A    between atoms: _86  and  _87
REMARK   35  A    between atoms: _86  and  _89
REMARK   36  A    between atoms: _89  and  _90
REMARK   37  A    between atoms: _93  and  _95
REMARK   38  A    between atoms: _95  and  _96
REMARK   39  A    between atoms: _95  and  _98
REMARK   40  A    between atoms: _98  and  _99
REMARK   41  A    between atoms: _102  and  _104
REMARK   42  A    between atoms: _104  and  _105
REMARK   43  A    between atoms: _104  and  _107
REMARK   44  A    between atoms: _107  and  _108
REMARK   45  A    between atoms: _108  and  _109
REMARK   46  A    between atoms: _109  and  _110
REMARK   47  A    between atoms: _110  and  _111
REMARK   48  A    between atoms: _115  and  _117
REMARK   49  A    between atoms: _117  and  _118
REMARK   50  A    between atoms: _117  and  _120
REMARK   51  A    between atoms: _120  and  _121
REMARK   52  A    between atoms: _126  and  _127
REMARK   53  A    between atoms: _129  and  _131
REMARK   54  A    between atoms: _131  and  _132
REMARK   55  A    between atoms: _131  and  _134
REMARK   56  A    between atoms: _134  and  _135
REMARK   57  A    between atoms: _140  and  _142
REMARK   58  A    between atoms: _142  and  _143
REMARK   59  A    between atoms: _142  and  _145
REMARK   60  A    between atoms: _145  and  _146
REMARK   61  A    between atoms: _149  and  _151
REMARK   62  A    between atoms: _151  and  _152
REMARK   63  A    between atoms: _154  and  _156
REMARK   64  A    between atoms: _156  and  _157
REMARK   65  A    between atoms: _160  and  _162
REMARK   66  A    between atoms: _162  and  _163
REMARK   67  A    between atoms: _162  and  _165
REMARK   68  A    between atoms: _165  and  _166
REMARK   69  A    between atoms: _171  and  _172
REMARK   70  A    between atoms: _174  and  _176
REMARK   71  A    between atoms: _176  and  _177
REMARK   72  A    between atoms: _176  and  _179
REMARK   73  A    between atoms: _179  and  _180
REMARK   74  A    between atoms: _183  and  _185
REMARK   75  A    between atoms: _185  and  _186
REMARK   76  A    between atoms: _185  and  _188
REMARK   77  A    between atoms: _191  and  _193
REMARK   78  A    between atoms: _193  and  _194
REMARK   79  A    between atoms: _193  and  _196
REMARK   80  A    between atoms: _196  and  _197
REMARK   81  A    between atoms: _197  and  _198
REMARK   82  A    between atoms: _198  and  _199
REMARK   83  A    between atoms: _208  and  _210
REMARK   84  A    between atoms: _210  and  _211
REMARK   85  A    between atoms: _210  and  _213
REMARK   86  A    between atoms: _213  and  _214
REMARK   87  A    between atoms: _217  and  _219
REMARK   88  A    between atoms: _219  and  _220
REMARK   89  A    between atoms: _219  and  _222
REMARK   90  A    between atoms: _225  and  _227
REMARK   91  A    between atoms: _227  and  _228
REMARK   92  A    between atoms: _231  and  _233
REMARK   93  A    between atoms: _233  and  _234
REMARK   94  A    between atoms: _236  and  _238
REMARK   95  A    between atoms: _238  and  _239
REMARK   96  A    between atoms: _238  and  _241
REMARK   97  A    between atoms: _241  and  _242
REMARK   98  A    between atoms: _247  and  _249
REMARK   99  A    between atoms: _249  and  _250
REMARK  100  A    between atoms: _249  and  _252
REMARK  101  A    between atoms: _252  and  _253
REMARK  102  A    between atoms: _253  and  _254
REMARK  103  A    between atoms: _254  and  _255
REMARK  104  A    between atoms: _264  and  _266
REMARK  105  A    between atoms: _266  and  _267
REMARK  106  A    between atoms: _266  and  _269
REMARK  107  A    between atoms: _269  and  _270
REMARK  108  A    between atoms: _273  and  _275
REMARK  109  A    between atoms: _275  and  _276
REMARK  110  A    between atoms: _275  and  _278
REMARK  111  A    between atoms: _278  and  _279
REMARK  112  A    between atoms: _281  and  _283
REMARK  113  A    between atoms: _283  and  _284
REMARK  114  A    between atoms: _283  and  _286
REMARK  115  A    between atoms: _286  and  _287
REMARK  116  A    between atoms: _287  and  _390
REMARK  117  A    between atoms: _288  and  _290
REMARK  118  A    between atoms: _290  and  _291
REMARK  119  A    between atoms: _290  and  _293
REMARK  120  A    between atoms: _293  and  _294
REMARK  121  A    between atoms: _294  and  _295
REMARK  122  A    between atoms: _300  and  _302
REMARK  123  A    between atoms: _302  and  _303
REMARK  124  A    between atoms: _305  and  _307
REMARK  125  A    between atoms: _307  and  _308
REMARK  126  A    between atoms: _307  and  _310
REMARK  127  A    between atoms: _310  and  _311
REMARK  128  A    between atoms: _314  and  _316
REMARK  129  A    between atoms: _316  and  _317
REMARK  130  A    between atoms: _316  and  _319
REMARK  131  A    between atoms: _319  and  _320
REMARK  132  A    between atoms: _322  and  _324
REMARK  133  A    between atoms: _324  and  _325
REMARK  134  A    between atoms: _327  and  _329
REMARK  135  A    between atoms: _329  and  _330
REMARK  136  A    between atoms: _332  and  _334
REMARK  137  A    between atoms: _334  and  _335
REMARK  138  A    between atoms: _334  and  _337
REMARK  139  A    between atoms: _340  and  _342
REMARK  140  A    between atoms: _342  and  _343
REMARK  141  A    between atoms: _342  and  _345
REMARK  142  A    between atoms: _345  and  _346
REMARK  143  A    between atoms: _348  and  _350
REMARK  144  A    between atoms: _350  and  _351
REMARK  145  A    between atoms: _350  and  _353
REMARK  146  A    between atoms: _353  and  _354
REMARK  147  A    between atoms: _364  and  _366
REMARK  148  A    between atoms: _366  and  _367
REMARK  149  A    between atoms: _369  and  _371
REMARK  150  A    between atoms: _371  and  _372
REMARK  151  A    between atoms: _371  and  _374
REMARK  152  A    between atoms: _374  and  _375
REMARK  153  A    between atoms: _375  and  _376
REMARK  154  A    between atoms: _379  and  _381
REMARK  155  A    between atoms: _381  and  _382
REMARK  156  A    between atoms: _384  and  _386
REMARK  157  A    between atoms: _386  and  _387
REMARK  158  A    between atoms: _386  and  _389
REMARK  159  A    between atoms: _389  and  _390
REMARK  160  A    between atoms: _391  and  _393
REMARK  161  A    between atoms: _393  and  _394
REMARK  162  A    between atoms: _397  and  _399
REMARK  163  A    between atoms: _399  and  _400
REMARK  164  A    between atoms: _399  and  _402
REMARK  165  A    between atoms: _402  and  _403
REMARK  166  A    between atoms: _403  and  _404
REMARK  167  A    between atoms: _409  and  _411
REMARK  168  A    between atoms: _411  and  _412
REMARK  169  A    between atoms: _411  and  _414
REMARK  170  A    between atoms: _414  and  _415
REMARK  171  A    between atoms: _420  and  _422
REMARK  172  A    between atoms: _422  and  _423
REMARK  173  A    between atoms: _422  and  _425
REMARK  174  A    between atoms: _425  and  _426
REMARK  175  A    between atoms: _426  and  _427
REMARK  176  A    between atoms: _427  and  _428
REMARK  177  A    between atoms: _438  and  _439
REMARK  178  A    between atoms: _444  and  _446
REMARK  179  A    between atoms: _446  and  _447
REMARK  180  A    between atoms: _449  and  _451
REMARK  181  A    between atoms: _451  and  _452
REMARK  182  A    between atoms: _451  and  _454
REMARK  183  A    between atoms: _454  and  _455
REMARK  184  A    between atoms: _458  and  _460
REMARK  185  A    between atoms: _460  and  _461
REMARK  186  A    between atoms: _460  and  _463
REMARK  187  A    between atoms: _463  and  _464
REMARK  188  A    between atoms: _469  and  _470
REMARK  189  A    between atoms: _472  and  _474
REMARK  190  A    between atoms: _474  and  _475
REMARK  191  A    between atoms: _478  and  _479
REMARK  192  A    between atoms: _484  and  _486
REMARK  193  A    between atoms: _486  and  _487
REMARK  194  A    between atoms: _486  and  _489
REMARK  195  A    between atoms: _489  and  _490
REMARK  196  A    between atoms: _493  and  _495
REMARK  197  A    between atoms: _495  and  _496
REMARK  198  A    between atoms: _495  and  _498
REMARK  199  A    between atoms: _501  and  _503
REMARK  200  A    between atoms: _503  and  _504
REMARK  201  A    between atoms: _503  and  _506
REMARK  202  A    between atoms: _506  and  _507
REMARK  203  A    between atoms: _513  and  _515
REMARK  204  A    between atoms: _515  and  _516
REMARK  205  A    between atoms: _515  and  _518
REMARK  206  A    between atoms: _518  and  _519
REMARK  207  A    between atoms: _524  and  _525
REMARK  208  A    between atoms: _527  and  _529
REMARK  209  A    between atoms: _529  and  _530
REMARK  210  A    between atoms: _529  and  _532
REMARK  211  A    between atoms: _532  and  _533
REMARK  212  A    between atoms: _536  and  _538
REMARK  213  A    between atoms: _538  and  _539
REMARK  214  A    between atoms: _542  and  _544
REMARK  215  A    between atoms: _544  and  _545
REMARK  216  A    between atoms: _544  and  _547
REMARK  217  A    between atoms: _547  and  _548
REMARK  218  A    between atoms: _548  and  _549
REMARK  219  A    between atoms: _554  and  _556
REMARK  220  A    between atoms: _556  and  _557
REMARK  221  A    between atoms: _556  and  _559
REMARK  222  A    between atoms: _559  and  _560
REMARK                            x       y       z     vdW  Elec       q    Type
REMARK                         _______ _______ _______ _____ _____    ______ ____
ROOT
ATOM      1  O   HOH     1      35.215  74.518  79.023  0.00  0.00    +0.000 OA
ENDROOT
TORSDOF 0
REMARK  Name = ../refined-set-2016/2za5/2za5_pocket.pdb
REMARK  222 active torsions:
REMARK  status: ('A' for Active; 'I' for Inactive)
REMARK    1  A    between atoms: _1  and  _5
REMARK    2  A    between atoms: _5  and  _6
REMARK    3  A    between atoms: _5  and  _8
REMARK    4  A    between atoms: _8  and  _9
REMARK    5  A    between atoms: _12  and  _14
REMARK    6  A    between atoms: _14  and  _15
REMARK    7  A    between atoms: _14  and  _17
REMARK    8  A    between atoms: _20  and  _22
REMARK    9  A    between atoms: _22  and  _23
REMARK   10  A    between atoms: _22  and  _25
REMARK   11  A    between atoms: _27  and  _29
REMARK   12  A    between atoms: _29  and  _30
REMARK   13  A    between atoms: _29  and  _32
REMARK   14  A    between atoms: _32  and  _33
REMARK   15  A    between atoms: _38  and  _40
REMARK   16  A    between atoms: _40  and  _41
REMARK   17  A    between atoms: _44  and  _46
REMARK   18  A    between atoms: _46  and  _47
REMARK   19  A    between atoms: _46  and  _49
REMARK   20  A    between atoms: _49  and  _50
REMARK   21  A    between atoms: _50  and  _51
REMARK   22  A    between atoms: _56  and  _58
REMARK   23  A    between atoms: _58  and  _59
REMARK   24  A    between atoms: _58  and  _61
REMARK   25  A    between atoms: _64  and  _66
REMARK   26  A    between atoms: _66  and  _67
REMARK   27  A    between atoms: _66  and  _69
REMARK   28  A    between atoms: _69  and  _70
REMARK   29  A    between atoms: _73  and  _75
REMARK   30  A    between atoms: _75  and  _76
REMARK   31  A    between atoms: _75  and  _78
REMARK   32  A    between atoms: _78  and  _79
REMARK   33  A    between atoms: _84  and  _86
REMARK   34  A    between atoms: _86  and  _87
REMARK   35  A    between atoms: _86  and  _89
REMARK   36  A    between atoms: _89  and  _90
REMARK   37  A    between atoms: _93  and  _95
REMARK   38  A    between atoms: _95  and  _96
REMARK   39  A    between atoms: _95  and  _98
REMARK   40  A    between atoms: _98  and  _99
REMARK   41  A    between atoms: _102  and  _104
REMARK   42  A    between atoms: _104  and  _105
REMARK   43  A    between atoms: _104  and  _107
REMARK   44  A    between atoms: _107  and  _108
REMARK   45  A    between atoms: _108  and  _109
REMARK   46  A    between atoms: _109  and  _110
REMARK   47  A    between atoms: _110  and  _111
REMARK   48  A    between atoms: _115  and  _117
REMARK   49  A    between atoms: _117  and  _118
REMARK   50  A    between atoms: _117  and  _120
REMARK   51  A    between atoms: _120  and  _121
REMARK   52  A    between atoms: _126  and  _127
REMARK   53  A    between atoms: _129  and  _131
REMARK   54  A    between atoms: _131  and  _132
REMARK   55  A    between atoms: _131  and  _134
REMARK   56  A    between atoms: _134  and  _135
REMARK   57  A    between atoms: _140  and  _142
REMARK   58  A    between atoms: _142  and  _143
REMARK   59  A    between atoms: _142  and  _145
REMARK   60  A    between atoms: _145  and  _146
REMARK   61  A    between atoms: _149  and  _151
REMARK   62  A    between atoms: _151  and  _152
REMARK   63  A    between atoms: _154  and  _156
REMARK   64  A    between atoms: _156  and  _157
REMARK   65  A    between atoms: _160  and  _162
REMARK   66  A    between atoms: _162  and  _163
REMARK   67  A    between atoms: _162  and  _165
REMARK   68  A    between atoms: _165  and  _166
REMARK   69  A    between atoms: _171  and  _172
REMARK   70  A    between atoms: _174  and  _176
REMARK   71  A    between atoms: _176  and  _177
REMARK   72  A    between atoms: _176  and  _179
REMARK   73  A    between atoms: _179  and  _180
REMARK   74  A    between atoms: _183  and  _185
REMARK   75  A    between atoms: _185  and  _186
REMARK   76  A    between atoms: _185  and  _188
REMARK   77  A    between atoms: _191  and  _193
REMARK   78  A    between atoms: _193  and  _194
REMARK   79  A    between atoms: _193  and  _196
REMARK   80  A    between atoms: _196  and  _197
REMARK   81  A    between atoms: _197  and  _198
REMARK   82  A    between atoms: _198  and  _199
REMARK   83  A    between atoms: _208  and  _210
REMARK   84  A    between atoms: _210  and  _211
REMARK   85  A    between atoms: _210  and  _213
REMARK   86  A    between atoms: _213  and  _214
REMARK   87  A    between atoms: _217  and  _219
REMARK   88  A    between atoms: _219  and  _220
REMARK   89  A    between atoms: _219  and  _222
REMARK   90  A    between atoms: _225  and  _227
REMARK   91  A    between atoms: _227  and  _228
REMARK   92  A    between atoms: _231  and  _233
REMARK   93  A    between atoms: _233  and  _234
REMARK   94  A    between atoms: _236  and  _238
REMARK   95  A    between atoms: _238  and  _239
REMARK   96  A    between atoms: _238  and  _241
REMARK   97  A    between atoms: _241  and  _242
REMARK   98  A    between atoms: _247  and  _249
REMARK   99  A    between atoms: _249  and  _250
REMARK  100  A    between atoms: _249  and  _252
REMARK  101  A    between atoms: _252  and  _253
REMARK  102  A    between atoms: _253  and  _254
REMARK  103  A    between atoms: _254  and  _255
REMARK  104  A    between atoms: _264  and  _266
REMARK  105  A    between atoms: _266  and  _267
REMARK  106  A    between atoms: _266  and  _269
REMARK  107  A    between atoms: _269  and  _270
REMARK  108  A    between atoms: _273  and  _275
REMARK  109  A    between atoms: _275  and  _276
REMARK  110  A    between atoms: _275  and  _278
REMARK  111  A    between atoms: _278  and  _279
REMARK  112  A    between atoms: _281  and  _283
REMARK  113  A    between atoms: _283  and  _284
REMARK  114  A    between atoms: _283  and  _286
REMARK  115  A    between atoms: _286  and  _287
REMARK  116  A    between atoms: _287  and  _390
REMARK  117  A    between atoms: _288  and  _290
REMARK  118  A    between atoms: _290  and  _291
REMARK  119  A    between atoms: _290  and  _293
REMARK  120  A    between atoms: _293  and  _294
REMARK  121  A    between atoms: _294  and  _295
REMARK  122  A    between atoms: _300  and  _302
REMARK  123  A    between atoms: _302  and  _303
REMARK  124  A    between atoms: _305  and  _307
REMARK  125  A    between atoms: _307  and  _308
REMARK  126  A    between atoms: _307  and  _310
REMARK  127  A    between atoms: _310  and  _311
REMARK  128  A    between atoms: _314  and  _316
REMARK  129  A    between atoms: _316  and  _317
REMARK  130  A    between atoms: _316  and  _319
REMARK  131  A    between atoms: _319  and  _320
REMARK  132  A    between atoms: _322  and  _324
REMARK  133  A    between atoms: _324  and  _325
REMARK  134  A    between atoms: _327  and  _329
REMARK  135  A    between atoms: _329  and  _330
REMARK  136  A    between atoms: _332  and  _334
REMARK  137  A    between atoms: _334  and  _335
REMARK  138  A    between atoms: _334  and  _337
REMARK  139  A    between atoms: _340  and  _342
REMARK  140  A    between atoms: _342  and  _343
REMARK  141  A    between atoms: _342  and  _345
REMARK  142  A    between atoms: _345  and  _346
REMARK  143  A    between atoms: _348  and  _350
REMARK  144  A    between atoms: _350  and  _351
REMARK  145  A    between atoms: _350  and  _353
REMARK  146  A    between atoms: _353  and  _354
REMARK  147  A    between atoms: _364  and  _366
REMARK  148  A    between atoms: _366  and  _367
REMARK  149  A    between atoms: _369  and  _371
REMARK  150  A    between atoms: _371  and  _372
REMARK  151  A    between atoms: _371  and  _374
REMARK  152  A    between atoms: _374  and  _375
REMARK  153  A    between atoms: _375  and  _376
REMARK  154  A    between atoms: _379  and  _381
REMARK  155  A    between atoms: _381  and  _382
REMARK  156  A    between atoms: _384  and  _386
REMARK  157  A    between atoms: _386  and  _387
REMARK  158  A    between atoms: _386  and  _389
REMARK  159  A    between atoms: _389  and  _390
REMARK  160  A    between atoms: _391  and  _393
REMARK  161  A    between atoms: _393  and  _394
REMARK  162  A    between atoms: _397  and  _399
REMARK  163  A    between atoms: _399  and  _400
REMARK  164  A    between atoms: _399  and  _402
REMARK  165  A    between atoms: _402  and  _403
REMARK  166  A    between atoms: _403  and  _404
REMARK  167  A    between atoms: _409  and  _411
REMARK  168  A    between atoms: _411  and  _412
REMARK  169  A    between atoms: _411  and  _414
REMARK  170  A    between atoms: _414  and  _415
REMARK  171  A    between atoms: _420  and  _422
REMARK  172  A    between atoms: _422  and  _423
REMARK  173  A    between atoms: _422  and  _425
REMARK  174  A    between atoms: _425  and  _426
REMARK  175  A    between atoms: _426  and  _427
REMARK  176  A    between atoms: _427  and  _428
REMARK  177  A    between atoms: _438  and  _439
REMARK  178  A    between atoms: _444  and  _446
REMARK  179  A    between atoms: _446  and  _447
REMARK  180  A    between atoms: _449  and  _451
REMARK  181  A    between atoms: _451  and  _452
REMARK  182  A    between atoms: _451  and  _454
REMARK  183  A    between atoms: _454  and  _455
REMARK  184  A    between atoms: _458  and  _460
REMARK  185  A    between atoms: _460  and  _461
REMARK  186  A    between atoms: _460  and  _463
REMARK  187  A    between atoms: _463  and  _464
REMARK  188  A    between atoms: _469  and  _470
REMARK  189  A    between atoms: _472  and  _474
REMARK  190  A    between atoms: _474  and  _475
REMARK  191  A    between atoms: _478  and  _479
REMARK  192  A    between atoms: _484  and  _486
REMARK  193  A    between atoms: _486  and  _487
REMARK  194  A    between atoms: _486  and  _489
REMARK  195  A    between atoms: _489  and  _490
REMARK  196  A    between atoms: _493  and  _495
REMARK  197  A    between atoms: _495  and  _496
REMARK  198  A    between atoms: _495  and  _498
REMARK  199  A    between atoms: _501  and  _503
REMARK  200  A    between atoms: _503  and  _504
REMARK  201  A    between atoms: _503  and  _506
REMARK  202  A    between atoms: _506  and  _507
REMARK  203  A    between atoms: _513  and  _515
REMARK  204  A    between atoms: _515  and  _516
REMARK  205  A    between atoms: _515  and  _518
REMARK  206  A    between atoms: _518  and  _519
REMARK  207  A    between atoms: _524  and  _525
REMARK  208  A    between atoms: _527  and  _529
REMARK  209  A    between atoms: _529  and  _530
REMARK  210  A    between atoms: _529  and  _532
REMARK  211  A    between atoms: _532  and  _533
REMARK  212  A    between atoms: _536  and  _538
REMARK  213  A    between atoms: _538  and  _539
REMARK  214  A    between atoms: _542  and  _544
REMARK  215  A    between atoms: _544  and  _545
REMARK  216  A    between atoms: _544  and  _547
REMARK  217  A    between atoms: _547  and  _548
REMARK  218  A    between atoms: _548  and  _549
REMARK  219  A    between atoms: _554  and  _556
REMARK  220  A    between atoms: _556  and  _557
REMARK  221  A    between atoms: _556  and  _559
REMARK  222  A    between atoms: _559  and  _560
REMARK                            x       y       z     vdW  Elec       q    Type
REMARK                         _______ _______ _______ _____ _____    ______ ____
ROOT
ATOM      1  O   HOH     1      32.269  71.943  88.217  0.00  0.00    +0.000 OA
ENDROOT
TORSDOF 0
