REMARK  Name = ../refined-set-2016/3pju/3pju_pocket.pdb
REMARK  267 active torsions:
REMARK  status: ('A' for Active; 'I' for Inactive)
REMARK    1  A    between atoms: _1  and  _3
REMARK    2  A    between atoms: _3  and  _4
REMARK    3  A    between atoms: _3  and  _6
REMARK    4  A    between atoms: _6  and  _7
REMARK    5  A    between atoms: _13  and  _15
REMARK    6  A    between atoms: _15  and  _16
REMARK    7  A    between atoms: _15  and  _18
REMARK    8  A    between atoms: _18  and  _19
REMARK    9  A    between atoms: _19  and  _20
REMARK   10  A    between atoms: _23  and  _25
REMARK   11  A    between atoms: _25  and  _26
REMARK   12  A    between atoms: _25  and  _28
REMARK   13  A    between atoms: _28  and  _29
REMARK   14  A    between atoms: _32  and  _34
REMARK   15  A    between atoms: _34  and  _35
REMARK   16  A    between atoms: _34  and  _37
REMARK   17  A    between atoms: _37  and  _38
REMARK   18  A    between atoms: _44  and  _46
REMARK   19  A    between atoms: _46  and  _47
REMARK   20  A    between atoms: _46  and  _49
REMARK   21  A    between atoms: _49  and  _50
REMARK   22  A    between atoms: _50  and  _51
REMARK   23  A    between atoms: _56  and  _58
REMARK   24  A    between atoms: _58  and  _59
REMARK   25  A    between atoms: _58  and  _61
REMARK   26  A    between atoms: _64  and  _66
REMARK   27  A    between atoms: _66  and  _67
REMARK   28  A    between atoms: _66  and  _69
REMARK   29  A    between atoms: _69  and  _70
REMARK   30  A    between atoms: _70  and  _71
REMARK   31  A    between atoms: _71  and  _72
REMARK   32  A    between atoms: _72  and  _73
REMARK   33  A    between atoms: _77  and  _79
REMARK   34  A    between atoms: _79  and  _80
REMARK   35  A    between atoms: _79  and  _82
REMARK   36  A    between atoms: _85  and  _87
REMARK   37  A    between atoms: _87  and  _88
REMARK   38  A    between atoms: _87  and  _90
REMARK   39  A    between atoms: _90  and  _91
REMARK   40  A    between atoms: _94  and  _96
REMARK   41  A    between atoms: _96  and  _97
REMARK   42  A    between atoms: _96  and  _99
REMARK   43  A    between atoms: _99  and  _100
REMARK   44  A    between atoms: _102  and  _104
REMARK   45  A    between atoms: _104  and  _105
REMARK   46  A    between atoms: _104  and  _107
REMARK   47  A    between atoms: _107  and  _108
REMARK   48  A    between atoms: _108  and  _109
REMARK   49  A    between atoms: _109  and  _110
REMARK   50  A    between atoms: _119  and  _121
REMARK   51  A    between atoms: _121  and  _122
REMARK   52  A    between atoms: _121  and  _124
REMARK   53  A    between atoms: _124  and  _125
REMARK   54  A    between atoms: _129  and  _130
REMARK   55  A    between atoms: _135  and  _137
REMARK   56  A    between atoms: _137  and  _138
REMARK   57  A    between atoms: _141  and  _143
REMARK   58  A    between atoms: _143  and  _144
REMARK   59  A    between atoms: _146  and  _148
REMARK   60  A    between atoms: _148  and  _149
REMARK   61  A    between atoms: _148  and  _151
REMARK   62  A    between atoms: _151  and  _152
REMARK   63  A    between atoms: _152  and  _153
REMARK   64  A    between atoms: _153  and  _154
REMARK   65  A    between atoms: _163  and  _165
REMARK   66  A    between atoms: _165  and  _166
REMARK   67  A    between atoms: _165  and  _168
REMARK   68  A    between atoms: _168  and  _169
REMARK   69  A    between atoms: _175  and  _177
REMARK   70  A    between atoms: _177  and  _178
REMARK   71  A    between atoms: _177  and  _180
REMARK   72  A    between atoms: _180  and  _181
REMARK   73  A    between atoms: _185  and  _186
REMARK   74  A    between atoms: _191  and  _193
REMARK   75  A    between atoms: _193  and  _194
REMARK   76  A    between atoms: _193  and  _196
REMARK   77  A    between atoms: _196  and  _197
REMARK   78  A    between atoms: _200  and  _202
REMARK   79  A    between atoms: _202  and  _203
REMARK   80  A    between atoms: _202  and  _205
REMARK   81  A    between atoms: _205  and  _206
REMARK   82  A    between atoms: _206  and  _207
REMARK   83  A    between atoms: _210  and  _212
REMARK   84  A    between atoms: _212  and  _213
REMARK   85  A    between atoms: _212  and  _215
REMARK   86  A    between atoms: _215  and  _216
REMARK   87  A    between atoms: _219  and  _221
REMARK   88  A    between atoms: _221  and  _222
REMARK   89  A    between atoms: _225  and  _227
REMARK   90  A    between atoms: _227  and  _228
REMARK   91  A    between atoms: _227  and  _230
REMARK   92  A    between atoms: _230  and  _231
REMARK   93  A    between atoms: _234  and  _236
REMARK   94  A    between atoms: _236  and  _237
REMARK   95  A    between atoms: _236  and  _239
REMARK   96  A    between atoms: _239  and  _240
REMARK   97  A    between atoms: _243  and  _245
REMARK   98  A    between atoms: _245  and  _246
REMARK   99  A    between atoms: _245  and  _248
REMARK  100  A    between atoms: _248  and  _249
REMARK  101  A    between atoms: _249  and  _250
REMARK  102  A    between atoms: _250  and  _251
REMARK  103  A    between atoms: _260  and  _262
REMARK  104  A    between atoms: _262  and  _263
REMARK  105  A    between atoms: _262  and  _265
REMARK  106  A    between atoms: _265  and  _266
REMARK  107  A    between atoms: _269  and  _271
REMARK  108  A    between atoms: _271  and  _272
REMARK  109  A    between atoms: _271  and  _274
REMARK  110  A    between atoms: _274  and  _275
REMARK  111  A    between atoms: _275  and  _276
REMARK  112  A    between atoms: _278  and  _280
REMARK  113  A    between atoms: _280  and  _281
REMARK  114  A    between atoms: _280  and  _283
REMARK  115  A    between atoms: _283  and  _284
REMARK  116  A    between atoms: _287  and  _289
REMARK  117  A    between atoms: _289  and  _290
REMARK  118  A    between atoms: _289  and  _292
REMARK  119  A    between atoms: _295  and  _297
REMARK  120  A    between atoms: _297  and  _298
REMARK  121  A    between atoms: _301  and  _303
REMARK  122  A    between atoms: _303  and  _304
REMARK  123  A    between atoms: _303  and  _306
REMARK  124  A    between atoms: _306  and  _307
REMARK  125  A    between atoms: _310  and  _312
REMARK  126  A    between atoms: _312  and  _313
REMARK  127  A    between atoms: _312  and  _315
REMARK  128  A    between atoms: _315  and  _316
REMARK  129  A    between atoms: _321  and  _323
REMARK  130  A    between atoms: _323  and  _324
REMARK  131  A    between atoms: _323  and  _326
REMARK  132  A    between atoms: _326  and  _327
REMARK  133  A    between atoms: _330  and  _332
REMARK  134  A    between atoms: _332  and  _333
REMARK  135  A    between atoms: _332  and  _335
REMARK  136  A    between atoms: _335  and  _336
REMARK  137  A    between atoms: _338  and  _340
REMARK  138  A    between atoms: _340  and  _341
REMARK  139  A    between atoms: _340  and  _343
REMARK  140  A    between atoms: _343  and  _344
REMARK  141  A    between atoms: _346  and  _348
REMARK  142  A    between atoms: _348  and  _349
REMARK  143  A    between atoms: _352  and  _354
REMARK  144  A    between atoms: _354  and  _355
REMARK  145  A    between atoms: _354  and  _357
REMARK  146  A    between atoms: _357  and  _358
REMARK  147  A    between atoms: _361  and  _363
REMARK  148  A    between atoms: _363  and  _364
REMARK  149  A    between atoms: _363  and  _366
REMARK  150  A    between atoms: _366  and  _367
REMARK  151  A    between atoms: _367  and  _368
REMARK  152  A    between atoms: _371  and  _373
REMARK  153  A    between atoms: _373  and  _374
REMARK  154  A    between atoms: _373  and  _376
REMARK  155  A    between atoms: _376  and  _377
REMARK  156  A    between atoms: _380  and  _382
REMARK  157  A    between atoms: _382  and  _383
REMARK  158  A    between atoms: _385  and  _387
REMARK  159  A    between atoms: _387  and  _388
REMARK  160  A    between atoms: _387  and  _390
REMARK  161  A    between atoms: _390  and  _391
REMARK  162  A    between atoms: _391  and  _392
REMARK  163  A    between atoms: _395  and  _397
REMARK  164  A    between atoms: _397  and  _398
REMARK  165  A    between atoms: _397  and  _400
REMARK  166  A    between atoms: _400  and  _401
REMARK  167  A    between atoms: _401  and  _402
REMARK  168  A    between atoms: _405  and  _407
REMARK  169  A    between atoms: _407  and  _408
REMARK  170  A    between atoms: _407  and  _410
REMARK  171  A    between atoms: _410  and  _411
REMARK  172  A    between atoms: _411  and  _412
REMARK  173  A    between atoms: _417  and  _419
REMARK  174  A    between atoms: _419  and  _420
REMARK  175  A    between atoms: _419  and  _422
REMARK  176  A    between atoms: _422  and  _423
REMARK  177  A    between atoms: _423  and  _424
REMARK  178  A    between atoms: _429  and  _431
REMARK  179  A    between atoms: _431  and  _432
REMARK  180  A    between atoms: _431  and  _434
REMARK  181  A    between atoms: _434  and  _435
REMARK  182  A    between atoms: _435  and  _436
REMARK  183  A    between atoms: _436  and  _437
REMARK  184  A    between atoms: _446  and  _448
REMARK  185  A    between atoms: _448  and  _449
REMARK  186  A    between atoms: _448  and  _451
REMARK  187  A    between atoms: _451  and  _452
REMARK  188  A    between atoms: _457  and  _458
REMARK  189  A    between atoms: _460  and  _462
REMARK  190  A    between atoms: _462  and  _463
REMARK  191  A    between atoms: _462  and  _465
REMARK  192  A    between atoms: _465  and  _466
REMARK  193  A    between atoms: _466  and  _467
REMARK  194  A    between atoms: _467  and  _468
REMARK  195  A    between atoms: _468  and  _469
REMARK  196  A    between atoms: _473  and  _475
REMARK  197  A    between atoms: _475  and  _476
REMARK  198  A    between atoms: _475  and  _478
REMARK  199  A    between atoms: _478  and  _479
REMARK  200  A    between atoms: _482  and  _484
REMARK  201  A    between atoms: _484  and  _485
REMARK  202  A    between atoms: _487  and  _489
REMARK  203  A    between atoms: _489  and  _490
REMARK  204  A    between atoms: _489  and  _492
REMARK  205  A    between atoms: _492  and  _493
REMARK  206  A    between atoms: _496  and  _498
REMARK  207  A    between atoms: _498  and  _499
REMARK  208  A    between atoms: _498  and  _501
REMARK  209  A    between atoms: _501  and  _502
REMARK  210  A    between atoms: _502  and  _503
REMARK  211  A    between atoms: _503  and  _504
REMARK  212  A    between atoms: _513  and  _515
REMARK  213  A    between atoms: _515  and  _516
REMARK  214  A    between atoms: _515  and  _518
REMARK  215  A    between atoms: _518  and  _519
REMARK  216  A    between atoms: _519  and  _520
REMARK  217  A    between atoms: _523  and  _525
REMARK  218  A    between atoms: _525  and  _526
REMARK  219  A    between atoms: _525  and  _528
REMARK  220  A    between atoms: _528  and  _529
REMARK  221  A    between atoms: _529  and  _530
REMARK  222  A    between atoms: _530  and  _531
REMARK  223  A    between atoms: _540  and  _542
REMARK  224  A    between atoms: _542  and  _543
REMARK  225  A    between atoms: _542  and  _545
REMARK  226  A    between atoms: _548  and  _550
REMARK  227  A    between atoms: _550  and  _551
REMARK  228  A    between atoms: _550  and  _553
REMARK  229  A    between atoms: _553  and  _554
REMARK  230  A    between atoms: _554  and  _555
REMARK  231  A    between atoms: _558  and  _560
REMARK  232  A    between atoms: _560  and  _561
REMARK  233  A    between atoms: _560  and  _563
REMARK  234  A    between atoms: _563  and  _564
REMARK  235  A    between atoms: _567  and  _569
REMARK  236  A    between atoms: _569  and  _570
REMARK  237  A    between atoms: _569  and  _572
REMARK  238  A    between atoms: _572  and  _573
REMARK  239  A    between atoms: _573  and  _574
REMARK  240  A    between atoms: _577  and  _579
REMARK  241  A    between atoms: _579  and  _580
REMARK  242  A    between atoms: _579  and  _582
REMARK  243  A    between atoms: _582  and  _583
REMARK  244  A    between atoms: _583  and  _584
REMARK  245  A    between atoms: _589  and  _591
REMARK  246  A    between atoms: _591  and  _592
REMARK  247  A    between atoms: _594  and  _596
REMARK  248  A    between atoms: _596  and  _597
REMARK  249  A    between atoms: _596  and  _599
REMARK  250  A    between atoms: _599  and  _600
REMARK  251  A    between atoms: _600  and  _601
REMARK  252  A    between atoms: _606  and  _608
REMARK  253  A    between atoms: _608  and  _609
REMARK  254  A    between atoms: _608  and  _611
REMARK  255  A    between atoms: _611  and  _612
REMARK  256  A    between atoms: _615  and  _617
REMARK  257  A    between atoms: _617  and  _618
REMARK  258  A    between atoms: _617  and  _620
REMARK  259  A    between atoms: _620  and  _621
REMARK  260  A    between atoms: _627  and  _629
REMARK  261  A    between atoms: _629  and  _630
REMARK  262  A    between atoms: _632  and  _634
REMARK  263  A    between atoms: _634  and  _635
REMARK  264  A    between atoms: _634  and  _637
REMARK  265  A    between atoms: _637  and  _638
REMARK  266  A    between atoms: _638  and  _639
REMARK  267  A    between atoms: _643  and  _644
REMARK                            x       y       z     vdW  Elec       q    Type
REMARK                         _______ _______ _______ _____ _____    ______ ____
ROOT
ATOM      1  C   GLU A   2      30.670  41.449  16.011  0.00  0.00    +0.241 C 
ATOM      2  N   LEU A   3      29.561  40.942  16.543  0.00  0.00    -0.297 N 
ATOM      3  H   LEU A   3      29.274  41.264  17.489  0.00  0.00    +0.150 HD
ATOM      4  O   GLU A   2      31.122  41.082  14.926  0.00  0.00    -0.273 OA
ENDROOT
BRANCH   2   5
ATOM      5  CA  LEU A   3      28.728  39.955  15.861  0.00  0.00    +0.149 C 
BRANCH   5   6
ATOM      6  C   LEU A   3      27.667  40.592  14.970  0.00  0.00    +0.241 C 
ATOM      7  O   LEU A   3      26.795  41.343  15.444  0.00  0.00    -0.273 OA
ATOM      8  N   PHE A   4      27.743  40.287  13.679  0.00  0.00    -0.298 N 
ATOM      9  H   PHE A   4      28.618  39.868  13.304  0.00  0.00    +0.150 HD
BRANCH   8  10
ATOM     10  CA  PHE A   4      26.622  40.529  12.780  0.00  0.00    +0.141 C 
BRANCH  10  11
ATOM     11  C   PHE A   4      25.910  39.215  12.459  0.00  0.00    +0.227 C 
ATOM     12  O   PHE A   4      26.459  38.138  12.692  0.00  0.00    -0.286 OA
ENDBRANCH  10  11
BRANCH  10  13
ATOM     13  CB  PHE A   4      27.086  41.225  11.510  0.00  0.00    +0.054 C 
BRANCH  13  14
ATOM     14  CG  PHE A   4      27.215  42.715  11.658  0.00  0.00    -0.020 A 
ATOM     15  CD2 PHE A   4      27.552  43.273  12.880  0.00  0.00    -0.004 A 
ATOM     16  CE2 PHE A   4      27.668  44.645  13.026  0.00  0.00    -0.000 A 
ATOM     17  CZ  PHE A   4      27.441  45.477  11.941  0.00  0.00    -0.000 A 
ATOM     18  CE1 PHE A   4      27.100  44.931  10.719  0.00  0.00    -0.000 A 
ATOM     19  CD1 PHE A   4      26.986  43.554  10.584  0.00  0.00    -0.004 A 
ENDBRANCH  13  14
ENDBRANCH  10  13
ENDBRANCH   8  10
ENDBRANCH   5   6
BRANCH   5  20
ATOM     20  CB  LEU A   3      28.025  39.049  16.881  0.00  0.00    +0.029 C 
BRANCH  20  21
ATOM     21  CG  LEU A   3      28.910  38.489  17.994  0.00  0.00    +0.002 C 
ATOM     22  CD2 LEU A   3      28.122  37.610  18.954  0.00  0.00    +0.000 C 
ATOM     23  CD1 LEU A   3      30.106  37.748  17.416  0.00  0.00    +0.000 C 
ENDBRANCH  20  21
ENDBRANCH   5  20
ENDBRANCH   2   5
BRANCH   1  24
ATOM     24  CA  GLU A   2      31.413  42.505  16.848  0.00  0.00    +0.149 C 
BRANCH  24  27
ATOM     25  C   PHE A   1      33.769  42.319  17.306  0.00  0.00    +0.239 C 
ATOM     26  O   PHE A   1      33.550  41.986  18.467  0.00  0.00    -0.274 OA
ATOM     27  N   GLU A   2      32.805  42.619  16.448  0.00  0.00    -0.297 N 
ATOM     28  H   GLU A   2      33.045  42.936  15.487  0.00  0.00    +0.150 HD
BRANCH  25  29
ATOM     29  CA  PHE A   1      35.183  42.418  16.792  0.00  0.00    +0.149 C 
BRANCH  29  30
ATOM     30  N   PHE A   1      36.040  43.107  17.757  0.00  0.00    -0.238 NA
ATOM     31  H   PHE A   1      36.606  42.540  18.420  0.00  0.00    +0.142 HD
ENDBRANCH  29  30
BRANCH  29  32
ATOM     32  CB  PHE A   1      35.731  41.026  16.491  0.00  0.00    +0.053 C 
BRANCH  32  33
ATOM     33  CG  PHE A   1      37.038  41.056  15.778  0.00  0.00    -0.020 A 
ATOM     34  CD2 PHE A   1      38.224  41.018  16.484  0.00  0.00    -0.004 A 
ATOM     35  CE2 PHE A   1      39.425  41.077  15.827  0.00  0.00    -0.000 A 
ATOM     36  CZ  PHE A   1      39.458  41.190  14.451  0.00  0.00    -0.000 A 
ATOM     37  CE1 PHE A   1      38.282  41.238  13.737  0.00  0.00    -0.000 A 
ATOM     38  CD1 PHE A   1      37.080  41.172  14.401  0.00  0.00    -0.004 A 
ENDBRANCH  32  33
ENDBRANCH  29  32
ENDBRANCH  25  29
ENDBRANCH  24  27
BRANCH  24  39
ATOM     39  CB  GLU A   2      30.721  43.881  16.831  0.00  0.00    +0.041 C 
BRANCH  39  40
ATOM     40  CG  GLU A   2      29.253  43.874  17.301  0.00  0.00    +0.116 C 
BRANCH  40  41
ATOM     41  CD  GLU A   2      28.988  43.020  18.567  0.00  0.00    +0.365 C 
ATOM     42  OE2 GLU A   2      27.877  43.124  19.138  0.00  0.00    -0.246 OA
ATOM     43  OE1 GLU A   2      29.870  42.238  18.995  0.00  0.00    -0.246 OA
ENDBRANCH  40  41
ENDBRANCH  39  40
ENDBRANCH  24  39
ENDBRANCH   1  24
TORSDOF 17
REMARK  Name = ../refined-set-2016/3pju/3pju_pocket.pdb
REMARK  267 active torsions:
REMARK  status: ('A' for Active; 'I' for Inactive)
REMARK    1  A    between atoms: _1  and  _3
REMARK    2  A    between atoms: _3  and  _4
REMARK    3  A    between atoms: _3  and  _6
REMARK    4  A    between atoms: _6  and  _7
REMARK    5  A    between atoms: _13  and  _15
REMARK    6  A    between atoms: _15  and  _16
REMARK    7  A    between atoms: _15  and  _18
REMARK    8  A    between atoms: _18  and  _19
REMARK    9  A    between atoms: _19  and  _20
REMARK   10  A    between atoms: _23  and  _25
REMARK   11  A    between atoms: _25  and  _26
REMARK   12  A    between atoms: _25  and  _28
REMARK   13  A    between atoms: _28  and  _29
REMARK   14  A    between atoms: _32  and  _34
REMARK   15  A    between atoms: _34  and  _35
REMARK   16  A    between atoms: _34  and  _37
REMARK   17  A    between atoms: _37  and  _38
REMARK   18  A    between atoms: _44  and  _46
REMARK   19  A    between atoms: _46  and  _47
REMARK   20  A    between atoms: _46  and  _49
REMARK   21  A    between atoms: _49  and  _50
REMARK   22  A    between atoms: _50  and  _51
REMARK   23  A    between atoms: _56  and  _58
REMARK   24  A    between atoms: _58  and  _59
REMARK   25  A    between atoms: _58  and  _61
REMARK   26  A    between atoms: _64  and  _66
REMARK   27  A    between atoms: _66  and  _67
REMARK   28  A    between atoms: _66  and  _69
REMARK   29  A    between atoms: _69  and  _70
REMARK   30  A    between atoms: _70  and  _71
REMARK   31  A    between atoms: _71  and  _72
REMARK   32  A    between atoms: _72  and  _73
REMARK   33  A    between atoms: _77  and  _79
REMARK   34  A    between atoms: _79  and  _80
REMARK   35  A    between atoms: _79  and  _82
REMARK   36  A    between atoms: _85  and  _87
REMARK   37  A    between atoms: _87  and  _88
REMARK   38  A    between atoms: _87  and  _90
REMARK   39  A    between atoms: _90  and  _91
REMARK   40  A    between atoms: _94  and  _96
REMARK   41  A    between atoms: _96  and  _97
REMARK   42  A    between atoms: _96  and  _99
REMARK   43  A    between atoms: _99  and  _100
REMARK   44  A    between atoms: _102  and  _104
REMARK   45  A    between atoms: _104  and  _105
REMARK   46  A    between atoms: _104  and  _107
REMARK   47  A    between atoms: _107  and  _108
REMARK   48  A    between atoms: _108  and  _109
REMARK   49  A    between atoms: _109  and  _110
REMARK   50  A    between atoms: _119  and  _121
REMARK   51  A    between atoms: _121  and  _122
REMARK   52  A    between atoms: _121  and  _124
REMARK   53  A    between atoms: _124  and  _125
REMARK   54  A    between atoms: _129  and  _130
REMARK   55  A    between atoms: _135  and  _137
REMARK   56  A    between atoms: _137  and  _138
REMARK   57  A    between atoms: _141  and  _143
REMARK   58  A    between atoms: _143  and  _144
REMARK   59  A    between atoms: _146  and  _148
REMARK   60  A    between atoms: _148  and  _149
REMARK   61  A    between atoms: _148  and  _151
REMARK   62  A    between atoms: _151  and  _152
REMARK   63  A    between atoms: _152  and  _153
REMARK   64  A    between atoms: _153  and  _154
REMARK   65  A    between atoms: _163  and  _165
REMARK   66  A    between atoms: _165  and  _166
REMARK   67  A    between atoms: _165  and  _168
REMARK   68  A    between atoms: _168  and  _169
REMARK   69  A    between atoms: _175  and  _177
REMARK   70  A    between atoms: _177  and  _178
REMARK   71  A    between atoms: _177  and  _180
REMARK   72  A    between atoms: _180  and  _181
REMARK   73  A    between atoms: _185  and  _186
REMARK   74  A    between atoms: _191  and  _193
REMARK   75  A    between atoms: _193  and  _194
REMARK   76  A    between atoms: _193  and  _196
REMARK   77  A    between atoms: _196  and  _197
REMARK   78  A    between atoms: _200  and  _202
REMARK   79  A    between atoms: _202  and  _203
REMARK   80  A    between atoms: _202  and  _205
REMARK   81  A    between atoms: _205  and  _206
REMARK   82  A    between atoms: _206  and  _207
REMARK   83  A    between atoms: _210  and  _212
REMARK   84  A    between atoms: _212  and  _213
REMARK   85  A    between atoms: _212  and  _215
REMARK   86  A    between atoms: _215  and  _216
REMARK   87  A    between atoms: _219  and  _221
REMARK   88  A    between atoms: _221  and  _222
REMARK   89  A    between atoms: _225  and  _227
REMARK   90  A    between atoms: _227  and  _228
REMARK   91  A    between atoms: _227  and  _230
REMARK   92  A    between atoms: _230  and  _231
REMARK   93  A    between atoms: _234  and  _236
REMARK   94  A    between atoms: _236  and  _237
REMARK   95  A    between atoms: _236  and  _239
REMARK   96  A    between atoms: _239  and  _240
REMARK   97  A    between atoms: _243  and  _245
REMARK   98  A    between atoms: _245  and  _246
REMARK   99  A    between atoms: _245  and  _248
REMARK  100  A    between atoms: _248  and  _249
REMARK  101  A    between atoms: _249  and  _250
REMARK  102  A    between atoms: _250  and  _251
REMARK  103  A    between atoms: _260  and  _262
REMARK  104  A    between atoms: _262  and  _263
REMARK  105  A    between atoms: _262  and  _265
REMARK  106  A    between atoms: _265  and  _266
REMARK  107  A    between atoms: _269  and  _271
REMARK  108  A    between atoms: _271  and  _272
REMARK  109  A    between atoms: _271  and  _274
REMARK  110  A    between atoms: _274  and  _275
REMARK  111  A    between atoms: _275  and  _276
REMARK  112  A    between atoms: _278  and  _280
REMARK  113  A    between atoms: _280  and  _281
REMARK  114  A    between atoms: _280  and  _283
REMARK  115  A    between atoms: _283  and  _284
REMARK  116  A    between atoms: _287  and  _289
REMARK  117  A    between atoms: _289  and  _290
REMARK  118  A    between atoms: _289  and  _292
REMARK  119  A    between atoms: _295  and  _297
REMARK  120  A    between atoms: _297  and  _298
REMARK  121  A    between atoms: _301  and  _303
REMARK  122  A    between atoms: _303  and  _304
REMARK  123  A    between atoms: _303  and  _306
REMARK  124  A    between atoms: _306  and  _307
REMARK  125  A    between atoms: _310  and  _312
REMARK  126  A    between atoms: _312  and  _313
REMARK  127  A    between atoms: _312  and  _315
REMARK  128  A    between atoms: _315  and  _316
REMARK  129  A    between atoms: _321  and  _323
REMARK  130  A    between atoms: _323  and  _324
REMARK  131  A    between atoms: _323  and  _326
REMARK  132  A    between atoms: _326  and  _327
REMARK  133  A    between atoms: _330  and  _332
REMARK  134  A    between atoms: _332  and  _333
REMARK  135  A    between atoms: _332  and  _335
REMARK  136  A    between atoms: _335  and  _336
REMARK  137  A    between atoms: _338  and  _340
REMARK  138  A    between atoms: _340  and  _341
REMARK  139  A    between atoms: _340  and  _343
REMARK  140  A    between atoms: _343  and  _344
REMARK  141  A    between atoms: _346  and  _348
REMARK  142  A    between atoms: _348  and  _349
REMARK  143  A    between atoms: _352  and  _354
REMARK  144  A    between atoms: _354  and  _355
REMARK  145  A    between atoms: _354  and  _357
REMARK  146  A    between atoms: _357  and  _358
REMARK  147  A    between atoms: _361  and  _363
REMARK  148  A    between atoms: _363  and  _364
REMARK  149  A    between atoms: _363  and  _366
REMARK  150  A    between atoms: _366  and  _367
REMARK  151  A    between atoms: _367  and  _368
REMARK  152  A    between atoms: _371  and  _373
REMARK  153  A    between atoms: _373  and  _374
REMARK  154  A    between atoms: _373  and  _376
REMARK  155  A    between atoms: _376  and  _377
REMARK  156  A    between atoms: _380  and  _382
REMARK  157  A    between atoms: _382  and  _383
REMARK  158  A    between atoms: _385  and  _387
REMARK  159  A    between atoms: _387  and  _388
REMARK  160  A    between atoms: _387  and  _390
REMARK  161  A    between atoms: _390  and  _391
REMARK  162  A    between atoms: _391  and  _392
REMARK  163  A    between atoms: _395  and  _397
REMARK  164  A    between atoms: _397  and  _398
REMARK  165  A    between atoms: _397  and  _400
REMARK  166  A    between atoms: _400  and  _401
REMARK  167  A    between atoms: _401  and  _402
REMARK  168  A    between atoms: _405  and  _407
REMARK  169  A    between atoms: _407  and  _408
REMARK  170  A    between atoms: _407  and  _410
REMARK  171  A    between atoms: _410  and  _411
REMARK  172  A    between atoms: _411  and  _412
REMARK  173  A    between atoms: _417  and  _419
REMARK  174  A    between atoms: _419  and  _420
REMARK  175  A    between atoms: _419  and  _422
REMARK  176  A    between atoms: _422  and  _423
REMARK  177  A    between atoms: _423  and  _424
REMARK  178  A    between atoms: _429  and  _431
REMARK  179  A    between atoms: _431  and  _432
REMARK  180  A    between atoms: _431  and  _434
REMARK  181  A    between atoms: _434  and  _435
REMARK  182  A    between atoms: _435  and  _436
REMARK  183  A    between atoms: _436  and  _437
REMARK  184  A    between atoms: _446  and  _448
REMARK  185  A    between atoms: _448  and  _449
REMARK  186  A    between atoms: _448  and  _451
REMARK  187  A    between atoms: _451  and  _452
REMARK  188  A    between atoms: _457  and  _458
REMARK  189  A    between atoms: _460  and  _462
REMARK  190  A    between atoms: _462  and  _463
REMARK  191  A    between atoms: _462  and  _465
REMARK  192  A    between atoms: _465  and  _466
REMARK  193  A    between atoms: _466  and  _467
REMARK  194  A    between atoms: _467  and  _468
REMARK  195  A    between atoms: _468  and  _469
REMARK  196  A    between atoms: _473  and  _475
REMARK  197  A    between atoms: _475  and  _476
REMARK  198  A    between atoms: _475  and  _478
REMARK  199  A    between atoms: _478  and  _479
REMARK  200  A    between atoms: _482  and  _484
REMARK  201  A    between atoms: _484  and  _485
REMARK  202  A    between atoms: _487  and  _489
REMARK  203  A    between atoms: _489  and  _490
REMARK  204  A    between atoms: _489  and  _492
REMARK  205  A    between atoms: _492  and  _493
REMARK  206  A    between atoms: _496  and  _498
REMARK  207  A    between atoms: _498  and  _499
REMARK  208  A    between atoms: _498  and  _501
REMARK  209  A    between atoms: _501  and  _502
REMARK  210  A    between atoms: _502  and  _503
REMARK  211  A    between atoms: _503  and  _504
REMARK  212  A    between atoms: _513  and  _515
REMARK  213  A    between atoms: _515  and  _516
REMARK  214  A    between atoms: _515  and  _518
REMARK  215  A    between atoms: _518  and  _519
REMARK  216  A    between atoms: _519  and  _520
REMARK  217  A    between atoms: _523  and  _525
REMARK  218  A    between atoms: _525  and  _526
REMARK  219  A    between atoms: _525  and  _528
REMARK  220  A    between atoms: _528  and  _529
REMARK  221  A    between atoms: _529  and  _530
REMARK  222  A    between atoms: _530  and  _531
REMARK  223  A    between atoms: _540  and  _542
REMARK  224  A    between atoms: _542  and  _543
REMARK  225  A    between atoms: _542  and  _545
REMARK  226  A    between atoms: _548  and  _550
REMARK  227  A    between atoms: _550  and  _551
REMARK  228  A    between atoms: _550  and  _553
REMARK  229  A    between atoms: _553  and  _554
REMARK  230  A    between atoms: _554  and  _555
REMARK  231  A    between atoms: _558  and  _560
REMARK  232  A    between atoms: _560  and  _561
REMARK  233  A    between atoms: _560  and  _563
REMARK  234  A    between atoms: _563  and  _564
REMARK  235  A    between atoms: _567  and  _569
REMARK  236  A    between atoms: _569  and  _570
REMARK  237  A    between atoms: _569  and  _572
REMARK  238  A    between atoms: _572  and  _573
REMARK  239  A    between atoms: _573  and  _574
REMARK  240  A    between atoms: _577  and  _579
REMARK  241  A    between atoms: _579  and  _580
REMARK  242  A    between atoms: _579  and  _582
REMARK  243  A    between atoms: _582  and  _583
REMARK  244  A    between atoms: _583  and  _584
REMARK  245  A    between atoms: _589  and  _591
REMARK  246  A    between atoms: _591  and  _592
REMARK  247  A    between atoms: _594  and  _596
REMARK  248  A    between atoms: _596  and  _597
REMARK  249  A    between atoms: _596  and  _599
REMARK  250  A    between atoms: _599  and  _600
REMARK  251  A    between atoms: _600  and  _601
REMARK  252  A    between atoms: _606  and  _608
REMARK  253  A    between atoms: _608  and  _609
REMARK  254  A    between atoms: _608  and  _611
REMARK  255  A    between atoms: _611  and  _612
REMARK  256  A    between atoms: _615  and  _617
REMARK  257  A    between atoms: _617  and  _618
REMARK  258  A    between atoms: _617  and  _620
REMARK  259  A    between atoms: _620  and  _621
REMARK  260  A    between atoms: _627  and  _629
REMARK  261  A    between atoms: _629  and  _630
REMARK  262  A    between atoms: _632  and  _634
REMARK  263  A    between atoms: _634  and  _635
REMARK  264  A    between atoms: _634  and  _637
REMARK  265  A    between atoms: _637  and  _638
REMARK  266  A    between atoms: _638  and  _639
REMARK  267  A    between atoms: _643  and  _644
REMARK                            x       y       z     vdW  Elec       q    Type
REMARK                         _______ _______ _______ _____ _____    ______ ____
ROOT
ATOM      1  CB  GLN A   1      22.804  36.786   7.275  0.00  0.00    +0.035 C 
ENDROOT
BRANCH   1   2
ATOM      2  CA  GLN A   1      22.042  36.947   8.587  0.00  0.00    +0.134 C 
BRANCH   2   3
ATOM      3  N   GLN A   1      22.952  37.031   9.726  0.00  0.00    -0.239 NA
ATOM      4  H   GLN A   1      23.436  36.172  10.057  0.00  0.00    +0.142 HD
ENDBRANCH   2   3
BRANCH   2   5
ATOM      5  C   GLN A   1      21.084  35.780   8.796  0.00  0.00    +0.224 C 
ATOM      6  O   GLN A   1      21.510  34.696   9.197  0.00  0.00    -0.287 OA
ENDBRANCH   2   5
ENDBRANCH   1   2
BRANCH   1   7
ATOM      7  CG  GLN A   1      22.847  38.035   6.442  0.00  0.00    +0.087 C 
BRANCH   7   8
ATOM      8  CD  GLN A   1      23.521  37.824   5.095  0.00  0.00    +0.219 C 
ATOM      9  OE1 GLN A   1      24.556  37.152   4.994  0.00  0.00    -0.275 OA
ATOM     10  NE2 GLN A   1      22.943  38.414   4.047  0.00  0.00    -0.329 N 
ATOM     11 HE21 GLN A   1      22.074  38.970   4.177  0.00  0.00    +0.145 HD
ATOM     12 HE22 GLN A   1      23.362  38.318   3.100  0.00  0.00    +0.145 HD
ENDBRANCH   7   8
ENDBRANCH   1   7
TORSDOF 5
REMARK  Name = ../refined-set-2016/3pju/3pju_pocket.pdb
REMARK  267 active torsions:
REMARK  status: ('A' for Active; 'I' for Inactive)
REMARK    1  A    between atoms: _1  and  _3
REMARK    2  A    between atoms: _3  and  _4
REMARK    3  A    between atoms: _3  and  _6
REMARK    4  A    between atoms: _6  and  _7
REMARK    5  A    between atoms: _13  and  _15
REMARK    6  A    between atoms: _15  and  _16
REMARK    7  A    between atoms: _15  and  _18
REMARK    8  A    between atoms: _18  and  _19
REMARK    9  A    between atoms: _19  and  _20
REMARK   10  A    between atoms: _23  and  _25
REMARK   11  A    between atoms: _25  and  _26
REMARK   12  A    between atoms: _25  and  _28
REMARK   13  A    between atoms: _28  and  _29
REMARK   14  A    between atoms: _32  and  _34
REMARK   15  A    between atoms: _34  and  _35
REMARK   16  A    between atoms: _34  and  _37
REMARK   17  A    between atoms: _37  and  _38
REMARK   18  A    between atoms: _44  and  _46
REMARK   19  A    between atoms: _46  and  _47
REMARK   20  A    between atoms: _46  and  _49
REMARK   21  A    between atoms: _49  and  _50
REMARK   22  A    between atoms: _50  and  _51
REMARK   23  A    between atoms: _56  and  _58
REMARK   24  A    between atoms: _58  and  _59
REMARK   25  A    between atoms: _58  and  _61
REMARK   26  A    between atoms: _64  and  _66
REMARK   27  A    between atoms: _66  and  _67
REMARK   28  A    between atoms: _66  and  _69
REMARK   29  A    between atoms: _69  and  _70
REMARK   30  A    between atoms: _70  and  _71
REMARK   31  A    between atoms: _71  and  _72
REMARK   32  A    between atoms: _72  and  _73
REMARK   33  A    between atoms: _77  and  _79
REMARK   34  A    between atoms: _79  and  _80
REMARK   35  A    between atoms: _79  and  _82
REMARK   36  A    between atoms: _85  and  _87
REMARK   37  A    between atoms: _87  and  _88
REMARK   38  A    between atoms: _87  and  _90
REMARK   39  A    between atoms: _90  and  _91
REMARK   40  A    between atoms: _94  and  _96
REMARK   41  A    between atoms: _96  and  _97
REMARK   42  A    between atoms: _96  and  _99
REMARK   43  A    between atoms: _99  and  _100
REMARK   44  A    between atoms: _102  and  _104
REMARK   45  A    between atoms: _104  and  _105
REMARK   46  A    between atoms: _104  and  _107
REMARK   47  A    between atoms: _107  and  _108
REMARK   48  A    between atoms: _108  and  _109
REMARK   49  A    between atoms: _109  and  _110
REMARK   50  A    between atoms: _119  and  _121
REMARK   51  A    between atoms: _121  and  _122
REMARK   52  A    between atoms: _121  and  _124
REMARK   53  A    between atoms: _124  and  _125
REMARK   54  A    between atoms: _129  and  _130
REMARK   55  A    between atoms: _135  and  _137
REMARK   56  A    between atoms: _137  and  _138
REMARK   57  A    between atoms: _141  and  _143
REMARK   58  A    between atoms: _143  and  _144
REMARK   59  A    between atoms: _146  and  _148
REMARK   60  A    between atoms: _148  and  _149
REMARK   61  A    between atoms: _148  and  _151
REMARK   62  A    between atoms: _151  and  _152
REMARK   63  A    between atoms: _152  and  _153
REMARK   64  A    between atoms: _153  and  _154
REMARK   65  A    between atoms: _163  and  _165
REMARK   66  A    between atoms: _165  and  _166
REMARK   67  A    between atoms: _165  and  _168
REMARK   68  A    between atoms: _168  and  _169
REMARK   69  A    between atoms: _175  and  _177
REMARK   70  A    between atoms: _177  and  _178
REMARK   71  A    between atoms: _177  and  _180
REMARK   72  A    between atoms: _180  and  _181
REMARK   73  A    between atoms: _185  and  _186
REMARK   74  A    between atoms: _191  and  _193
REMARK   75  A    between atoms: _193  and  _194
REMARK   76  A    between atoms: _193  and  _196
REMARK   77  A    between atoms: _196  and  _197
REMARK   78  A    between atoms: _200  and  _202
REMARK   79  A    between atoms: _202  and  _203
REMARK   80  A    between atoms: _202  and  _205
REMARK   81  A    between atoms: _205  and  _206
REMARK   82  A    between atoms: _206  and  _207
REMARK   83  A    between atoms: _210  and  _212
REMARK   84  A    between atoms: _212  and  _213
REMARK   85  A    between atoms: _212  and  _215
REMARK   86  A    between atoms: _215  and  _216
REMARK   87  A    between atoms: _219  and  _221
REMARK   88  A    between atoms: _221  and  _222
REMARK   89  A    between atoms: _225  and  _227
REMARK   90  A    between atoms: _227  and  _228
REMARK   91  A    between atoms: _227  and  _230
REMARK   92  A    between atoms: _230  and  _231
REMARK   93  A    between atoms: _234  and  _236
REMARK   94  A    between atoms: _236  and  _237
REMARK   95  A    between atoms: _236  and  _239
REMARK   96  A    between atoms: _239  and  _240
REMARK   97  A    between atoms: _243  and  _245
REMARK   98  A    between atoms: _245  and  _246
REMARK   99  A    between atoms: _245  and  _248
REMARK  100  A    between atoms: _248  and  _249
REMARK  101  A    between atoms: _249  and  _250
REMARK  102  A    between atoms: _250  and  _251
REMARK  103  A    between atoms: _260  and  _262
REMARK  104  A    between atoms: _262  and  _263
REMARK  105  A    between atoms: _262  and  _265
REMARK  106  A    between atoms: _265  and  _266
REMARK  107  A    between atoms: _269  and  _271
REMARK  108  A    between atoms: _271  and  _272
REMARK  109  A    between atoms: _271  and  _274
REMARK  110  A    between atoms: _274  and  _275
REMARK  111  A    between atoms: _275  and  _276
REMARK  112  A    between atoms: _278  and  _280
REMARK  113  A    between atoms: _280  and  _281
REMARK  114  A    between atoms: _280  and  _283
REMARK  115  A    between atoms: _283  and  _284
REMARK  116  A    between atoms: _287  and  _289
REMARK  117  A    between atoms: _289  and  _290
REMARK  118  A    between atoms: _289  and  _292
REMARK  119  A    between atoms: _295  and  _297
REMARK  120  A    between atoms: _297  and  _298
REMARK  121  A    between atoms: _301  and  _303
REMARK  122  A    between atoms: _303  and  _304
REMARK  123  A    between atoms: _303  and  _306
REMARK  124  A    between atoms: _306  and  _307
REMARK  125  A    between atoms: _310  and  _312
REMARK  126  A    between atoms: _312  and  _313
REMARK  127  A    between atoms: _312  and  _315
REMARK  128  A    between atoms: _315  and  _316
REMARK  129  A    between atoms: _321  and  _323
REMARK  130  A    between atoms: _323  and  _324
REMARK  131  A    between atoms: _323  and  _326
REMARK  132  A    between atoms: _326  and  _327
REMARK  133  A    between atoms: _330  and  _332
REMARK  134  A    between atoms: _332  and  _333
REMARK  135  A    between atoms: _332  and  _335
REMARK  136  A    between atoms: _335  and  _336
REMARK  137  A    between atoms: _338  and  _340
REMARK  138  A    between atoms: _340  and  _341
REMARK  139  A    between atoms: _340  and  _343
REMARK  140  A    between atoms: _343  and  _344
REMARK  141  A    between atoms: _346  and  _348
REMARK  142  A    between atoms: _348  and  _349
REMARK  143  A    between atoms: _352  and  _354
REMARK  144  A    between atoms: _354  and  _355
REMARK  145  A    between atoms: _354  and  _357
REMARK  146  A    between atoms: _357  and  _358
REMARK  147  A    between atoms: _361  and  _363
REMARK  148  A    between atoms: _363  and  _364
REMARK  149  A    between atoms: _363  and  _366
REMARK  150  A    between atoms: _366  and  _367
REMARK  151  A    between atoms: _367  and  _368
REMARK  152  A    between atoms: _371  and  _373
REMARK  153  A    between atoms: _373  and  _374
REMARK  154  A    between atoms: _373  and  _376
REMARK  155  A    between atoms: _376  and  _377
REMARK  156  A    between atoms: _380  and  _382
REMARK  157  A    between atoms: _382  and  _383
REMARK  158  A    between atoms: _385  and  _387
REMARK  159  A    between atoms: _387  and  _388
REMARK  160  A    between atoms: _387  and  _390
REMARK  161  A    between atoms: _390  and  _391
REMARK  162  A    between atoms: _391  and  _392
REMARK  163  A    between atoms: _395  and  _397
REMARK  164  A    between atoms: _397  and  _398
REMARK  165  A    between atoms: _397  and  _400
REMARK  166  A    between atoms: _400  and  _401
REMARK  167  A    between atoms: _401  and  _402
REMARK  168  A    between atoms: _405  and  _407
REMARK  169  A    between atoms: _407  and  _408
REMARK  170  A    between atoms: _407  and  _410
REMARK  171  A    between atoms: _410  and  _411
REMARK  172  A    between atoms: _411  and  _412
REMARK  173  A    between atoms: _417  and  _419
REMARK  174  A    between atoms: _419  and  _420
REMARK  175  A    between atoms: _419  and  _422
REMARK  176  A    between atoms: _422  and  _423
REMARK  177  A    between atoms: _423  and  _424
REMARK  178  A    between atoms: _429  and  _431
REMARK  179  A    between atoms: _431  and  _432
REMARK  180  A    between atoms: _431  and  _434
REMARK  181  A    between atoms: _434  and  _435
REMARK  182  A    between atoms: _435  and  _436
REMARK  183  A    between atoms: _436  and  _437
REMARK  184  A    between atoms: _446  and  _448
REMARK  185  A    between atoms: _448  and  _449
REMARK  186  A    between atoms: _448  and  _451
REMARK  187  A    between atoms: _451  and  _452
REMARK  188  A    between atoms: _457  and  _458
REMARK  189  A    between atoms: _460  and  _462
REMARK  190  A    between atoms: _462  and  _463
REMARK  191  A    between atoms: _462  and  _465
REMARK  192  A    between atoms: _465  and  _466
REMARK  193  A    between atoms: _466  and  _467
REMARK  194  A    between atoms: _467  and  _468
REMARK  195  A    between atoms: _468  and  _469
REMARK  196  A    between atoms: _473  and  _475
REMARK  197  A    between atoms: _475  and  _476
REMARK  198  A    between atoms: _475  and  _478
REMARK  199  A    between atoms: _478  and  _479
REMARK  200  A    between atoms: _482  and  _484
REMARK  201  A    between atoms: _484  and  _485
REMARK  202  A    between atoms: _487  and  _489
REMARK  203  A    between atoms: _489  and  _490
REMARK  204  A    between atoms: _489  and  _492
REMARK  205  A    between atoms: _492  and  _493
REMARK  206  A    between atoms: _496  and  _498
REMARK  207  A    between atoms: _498  and  _499
REMARK  208  A    between atoms: _498  and  _501
REMARK  209  A    between atoms: _501  and  _502
REMARK  210  A    between atoms: _502  and  _503
REMARK  211  A    between atoms: _503  and  _504
REMARK  212  A    between atoms: _513  and  _515
REMARK  213  A    between atoms: _515  and  _516
REMARK  214  A    between atoms: _515  and  _518
REMARK  215  A    between atoms: _518  and  _519
REMARK  216  A    between atoms: _519  and  _520
REMARK  217  A    between atoms: _523  and  _525
REMARK  218  A    between atoms: _525  and  _526
REMARK  219  A    between atoms: _525  and  _528
REMARK  220  A    between atoms: _528  and  _529
REMARK  221  A    between atoms: _529  and  _530
REMARK  222  A    between atoms: _530  and  _531
REMARK  223  A    between atoms: _540  and  _542
REMARK  224  A    between atoms: _542  and  _543
REMARK  225  A    between atoms: _542  and  _545
REMARK  226  A    between atoms: _548  and  _550
REMARK  227  A    between atoms: _550  and  _551
REMARK  228  A    between atoms: _550  and  _553
REMARK  229  A    between atoms: _553  and  _554
REMARK  230  A    between atoms: _554  and  _555
REMARK  231  A    between atoms: _558  and  _560
REMARK  232  A    between atoms: _560  and  _561
REMARK  233  A    between atoms: _560  and  _563
REMARK  234  A    between atoms: _563  and  _564
REMARK  235  A    between atoms: _567  and  _569
REMARK  236  A    between atoms: _569  and  _570
REMARK  237  A    between atoms: _569  and  _572
REMARK  238  A    between atoms: _572  and  _573
REMARK  239  A    between atoms: _573  and  _574
REMARK  240  A    between atoms: _577  and  _579
REMARK  241  A    between atoms: _579  and  _580
REMARK  242  A    between atoms: _579  and  _582
REMARK  243  A    between atoms: _582  and  _583
REMARK  244  A    between atoms: _583  and  _584
REMARK  245  A    between atoms: _589  and  _591
REMARK  246  A    between atoms: _591  and  _592
REMARK  247  A    between atoms: _594  and  _596
REMARK  248  A    between atoms: _596  and  _597
REMARK  249  A    between atoms: _596  and  _599
REMARK  250  A    between atoms: _599  and  _600
REMARK  251  A    between atoms: _600  and  _601
REMARK  252  A    between atoms: _606  and  _608
REMARK  253  A    between atoms: _608  and  _609
REMARK  254  A    between atoms: _608  and  _611
REMARK  255  A    between atoms: _611  and  _612
REMARK  256  A    between atoms: _615  and  _617
REMARK  257  A    between atoms: _617  and  _618
REMARK  258  A    between atoms: _617  and  _620
REMARK  259  A    between atoms: _620  and  _621
REMARK  260  A    between atoms: _627  and  _629
REMARK  261  A    between atoms: _629  and  _630
REMARK  262  A    between atoms: _632  and  _634
REMARK  263  A    between atoms: _634  and  _635
REMARK  264  A    between atoms: _634  and  _637
REMARK  265  A    between atoms: _637  and  _638
REMARK  266  A    between atoms: _638  and  _639
REMARK  267  A    between atoms: _643  and  _644
REMARK                            x       y       z     vdW  Elec       q    Type
REMARK                         _______ _______ _______ _____ _____    ______ ____
ROOT
ATOM      1  CA  VAL A   1      18.979  31.425   7.203  0.00  0.00    +0.133 C 
ENDROOT
BRANCH   1   2
ATOM      2  CB  VAL A   1      20.112  30.434   7.472  0.00  0.00    +0.023 C 
ATOM      3  CG2 VAL A   1      21.443  31.107   7.233  0.00  0.00    +0.002 C 
ATOM      4  CG1 VAL A   1      19.986  29.238   6.565  0.00  0.00    +0.002 C 
ENDBRANCH   1   2
BRANCH   1   5
ATOM      5  N   VAL A   1      18.995  32.554   8.125  0.00  0.00    -0.239 NA
ATOM      6  H   VAL A   1      19.004  32.371   9.149  0.00  0.00    +0.142 HD
ENDBRANCH   1   5
BRANCH   1   7
ATOM      7  C   VAL A   1      17.617  30.773   7.351  0.00  0.00    +0.224 C 
ATOM      8  O   VAL A   1      17.186  30.430   8.460  0.00  0.00    -0.287 OA
ENDBRANCH   1   7
TORSDOF 3
REMARK  Name = ../refined-set-2016/3pju/3pju_pocket.pdb
REMARK  267 active torsions:
REMARK  status: ('A' for Active; 'I' for Inactive)
REMARK    1  A    between atoms: _1  and  _3
REMARK    2  A    between atoms: _3  and  _4
REMARK    3  A    between atoms: _3  and  _6
REMARK    4  A    between atoms: _6  and  _7
REMARK    5  A    between atoms: _13  and  _15
REMARK    6  A    between atoms: _15  and  _16
REMARK    7  A    between atoms: _15  and  _18
REMARK    8  A    between atoms: _18  and  _19
REMARK    9  A    between atoms: _19  and  _20
REMARK   10  A    between atoms: _23  and  _25
REMARK   11  A    between atoms: _25  and  _26
REMARK   12  A    between atoms: _25  and  _28
REMARK   13  A    between atoms: _28  and  _29
REMARK   14  A    between atoms: _32  and  _34
REMARK   15  A    between atoms: _34  and  _35
REMARK   16  A    between atoms: _34  and  _37
REMARK   17  A    between atoms: _37  and  _38
REMARK   18  A    between atoms: _44  and  _46
REMARK   19  A    between atoms: _46  and  _47
REMARK   20  A    between atoms: _46  and  _49
REMARK   21  A    between atoms: _49  and  _50
REMARK   22  A    between atoms: _50  and  _51
REMARK   23  A    between atoms: _56  and  _58
REMARK   24  A    between atoms: _58  and  _59
REMARK   25  A    between atoms: _58  and  _61
REMARK   26  A    between atoms: _64  and  _66
REMARK   27  A    between atoms: _66  and  _67
REMARK   28  A    between atoms: _66  and  _69
REMARK   29  A    between atoms: _69  and  _70
REMARK   30  A    between atoms: _70  and  _71
REMARK   31  A    between atoms: _71  and  _72
REMARK   32  A    between atoms: _72  and  _73
REMARK   33  A    between atoms: _77  and  _79
REMARK   34  A    between atoms: _79  and  _80
REMARK   35  A    between atoms: _79  and  _82
REMARK   36  A    between atoms: _85  and  _87
REMARK   37  A    between atoms: _87  and  _88
REMARK   38  A    between atoms: _87  and  _90
REMARK   39  A    between atoms: _90  and  _91
REMARK   40  A    between atoms: _94  and  _96
REMARK   41  A    between atoms: _96  and  _97
REMARK   42  A    between atoms: _96  and  _99
REMARK   43  A    between atoms: _99  and  _100
REMARK   44  A    between atoms: _102  and  _104
REMARK   45  A    between atoms: _104  and  _105
REMARK   46  A    between atoms: _104  and  _107
REMARK   47  A    between atoms: _107  and  _108
REMARK   48  A    between atoms: _108  and  _109
REMARK   49  A    between atoms: _109  and  _110
REMARK   50  A    between atoms: _119  and  _121
REMARK   51  A    between atoms: _121  and  _122
REMARK   52  A    between atoms: _121  and  _124
REMARK   53  A    between atoms: _124  and  _125
REMARK   54  A    between atoms: _129  and  _130
REMARK   55  A    between atoms: _135  and  _137
REMARK   56  A    between atoms: _137  and  _138
REMARK   57  A    between atoms: _141  and  _143
REMARK   58  A    between atoms: _143  and  _144
REMARK   59  A    between atoms: _146  and  _148
REMARK   60  A    between atoms: _148  and  _149
REMARK   61  A    between atoms: _148  and  _151
REMARK   62  A    between atoms: _151  and  _152
REMARK   63  A    between atoms: _152  and  _153
REMARK   64  A    between atoms: _153  and  _154
REMARK   65  A    between atoms: _163  and  _165
REMARK   66  A    between atoms: _165  and  _166
REMARK   67  A    between atoms: _165  and  _168
REMARK   68  A    between atoms: _168  and  _169
REMARK   69  A    between atoms: _175  and  _177
REMARK   70  A    between atoms: _177  and  _178
REMARK   71  A    between atoms: _177  and  _180
REMARK   72  A    between atoms: _180  and  _181
REMARK   73  A    between atoms: _185  and  _186
REMARK   74  A    between atoms: _191  and  _193
REMARK   75  A    between atoms: _193  and  _194
REMARK   76  A    between atoms: _193  and  _196
REMARK   77  A    between atoms: _196  and  _197
REMARK   78  A    between atoms: _200  and  _202
REMARK   79  A    between atoms: _202  and  _203
REMARK   80  A    between atoms: _202  and  _205
REMARK   81  A    between atoms: _205  and  _206
REMARK   82  A    between atoms: _206  and  _207
REMARK   83  A    between atoms: _210  and  _212
REMARK   84  A    between atoms: _212  and  _213
REMARK   85  A    between atoms: _212  and  _215
REMARK   86  A    between atoms: _215  and  _216
REMARK   87  A    between atoms: _219  and  _221
REMARK   88  A    between atoms: _221  and  _222
REMARK   89  A    between atoms: _225  and  _227
REMARK   90  A    between atoms: _227  and  _228
REMARK   91  A    between atoms: _227  and  _230
REMARK   92  A    between atoms: _230  and  _231
REMARK   93  A    between atoms: _234  and  _236
REMARK   94  A    between atoms: _236  and  _237
REMARK   95  A    between atoms: _236  and  _239
REMARK   96  A    between atoms: _239  and  _240
REMARK   97  A    between atoms: _243  and  _245
REMARK   98  A    between atoms: _245  and  _246
REMARK   99  A    between atoms: _245  and  _248
REMARK  100  A    between atoms: _248  and  _249
REMARK  101  A    between atoms: _249  and  _250
REMARK  102  A    between atoms: _250  and  _251
REMARK  103  A    between atoms: _260  and  _262
REMARK  104  A    between atoms: _262  and  _263
REMARK  105  A    between atoms: _262  and  _265
REMARK  106  A    between atoms: _265  and  _266
REMARK  107  A    between atoms: _269  and  _271
REMARK  108  A    between atoms: _271  and  _272
REMARK  109  A    between atoms: _271  and  _274
REMARK  110  A    between atoms: _274  and  _275
REMARK  111  A    between atoms: _275  and  _276
REMARK  112  A    between atoms: _278  and  _280
REMARK  113  A    between atoms: _280  and  _281
REMARK  114  A    between atoms: _280  and  _283
REMARK  115  A    between atoms: _283  and  _284
REMARK  116  A    between atoms: _287  and  _289
REMARK  117  A    between atoms: _289  and  _290
REMARK  118  A    between atoms: _289  and  _292
REMARK  119  A    between atoms: _295  and  _297
REMARK  120  A    between atoms: _297  and  _298
REMARK  121  A    between atoms: _301  and  _303
REMARK  122  A    between atoms: _303  and  _304
REMARK  123  A    between atoms: _303  and  _306
REMARK  124  A    between atoms: _306  and  _307
REMARK  125  A    between atoms: _310  and  _312
REMARK  126  A    between atoms: _312  and  _313
REMARK  127  A    between atoms: _312  and  _315
REMARK  128  A    between atoms: _315  and  _316
REMARK  129  A    between atoms: _321  and  _323
REMARK  130  A    between atoms: _323  and  _324
REMARK  131  A    between atoms: _323  and  _326
REMARK  132  A    between atoms: _326  and  _327
REMARK  133  A    between atoms: _330  and  _332
REMARK  134  A    between atoms: _332  and  _333
REMARK  135  A    between atoms: _332  and  _335
REMARK  136  A    between atoms: _335  and  _336
REMARK  137  A    between atoms: _338  and  _340
REMARK  138  A    between atoms: _340  and  _341
REMARK  139  A    between atoms: _340  and  _343
REMARK  140  A    between atoms: _343  and  _344
REMARK  141  A    between atoms: _346  and  _348
REMARK  142  A    between atoms: _348  and  _349
REMARK  143  A    between atoms: _352  and  _354
REMARK  144  A    between atoms: _354  and  _355
REMARK  145  A    between atoms: _354  and  _357
REMARK  146  A    between atoms: _357  and  _358
REMARK  147  A    between atoms: _361  and  _363
REMARK  148  A    between atoms: _363  and  _364
REMARK  149  A    between atoms: _363  and  _366
REMARK  150  A    between atoms: _366  and  _367
REMARK  151  A    between atoms: _367  and  _368
REMARK  152  A    between atoms: _371  and  _373
REMARK  153  A    between atoms: _373  and  _374
REMARK  154  A    between atoms: _373  and  _376
REMARK  155  A    between atoms: _376  and  _377
REMARK  156  A    between atoms: _380  and  _382
REMARK  157  A    between atoms: _382  and  _383
REMARK  158  A    between atoms: _385  and  _387
REMARK  159  A    between atoms: _387  and  _388
REMARK  160  A    between atoms: _387  and  _390
REMARK  161  A    between atoms: _390  and  _391
REMARK  162  A    between atoms: _391  and  _392
REMARK  163  A    between atoms: _395  and  _397
REMARK  164  A    between atoms: _397  and  _398
REMARK  165  A    between atoms: _397  and  _400
REMARK  166  A    between atoms: _400  and  _401
REMARK  167  A    between atoms: _401  and  _402
REMARK  168  A    between atoms: _405  and  _407
REMARK  169  A    between atoms: _407  and  _408
REMARK  170  A    between atoms: _407  and  _410
REMARK  171  A    between atoms: _410  and  _411
REMARK  172  A    between atoms: _411  and  _412
REMARK  173  A    between atoms: _417  and  _419
REMARK  174  A    between atoms: _419  and  _420
REMARK  175  A    between atoms: _419  and  _422
REMARK  176  A    between atoms: _422  and  _423
REMARK  177  A    between atoms: _423  and  _424
REMARK  178  A    between atoms: _429  and  _431
REMARK  179  A    between atoms: _431  and  _432
REMARK  180  A    between atoms: _431  and  _434
REMARK  181  A    between atoms: _434  and  _435
REMARK  182  A    between atoms: _435  and  _436
REMARK  183  A    between atoms: _436  and  _437
REMARK  184  A    between atoms: _446  and  _448
REMARK  185  A    between atoms: _448  and  _449
REMARK  186  A    between atoms: _448  and  _451
REMARK  187  A    between atoms: _451  and  _452
REMARK  188  A    between atoms: _457  and  _458
REMARK  189  A    between atoms: _460  and  _462
REMARK  190  A    between atoms: _462  and  _463
REMARK  191  A    between atoms: _462  and  _465
REMARK  192  A    between atoms: _465  and  _466
REMARK  193  A    between atoms: _466  and  _467
REMARK  194  A    between atoms: _467  and  _468
REMARK  195  A    between atoms: _468  and  _469
REMARK  196  A    between atoms: _473  and  _475
REMARK  197  A    between atoms: _475  and  _476
REMARK  198  A    between atoms: _475  and  _478
REMARK  199  A    between atoms: _478  and  _479
REMARK  200  A    between atoms: _482  and  _484
REMARK  201  A    between atoms: _484  and  _485
REMARK  202  A    between atoms: _487  and  _489
REMARK  203  A    between atoms: _489  and  _490
REMARK  204  A    between atoms: _489  and  _492
REMARK  205  A    between atoms: _492  and  _493
REMARK  206  A    between atoms: _496  and  _498
REMARK  207  A    between atoms: _498  and  _499
REMARK  208  A    between atoms: _498  and  _501
REMARK  209  A    between atoms: _501  and  _502
REMARK  210  A    between atoms: _502  and  _503
REMARK  211  A    between atoms: _503  and  _504
REMARK  212  A    between atoms: _513  and  _515
REMARK  213  A    between atoms: _515  and  _516
REMARK  214  A    between atoms: _515  and  _518
REMARK  215  A    between atoms: _518  and  _519
REMARK  216  A    between atoms: _519  and  _520
REMARK  217  A    between atoms: _523  and  _525
REMARK  218  A    between atoms: _525  and  _526
REMARK  219  A    between atoms: _525  and  _528
REMARK  220  A    between atoms: _528  and  _529
REMARK  221  A    between atoms: _529  and  _530
REMARK  222  A    between atoms: _530  and  _531
REMARK  223  A    between atoms: _540  and  _542
REMARK  224  A    between atoms: _542  and  _543
REMARK  225  A    between atoms: _542  and  _545
REMARK  226  A    between atoms: _548  and  _550
REMARK  227  A    between atoms: _550  and  _551
REMARK  228  A    between atoms: _550  and  _553
REMARK  229  A    between atoms: _553  and  _554
REMARK  230  A    between atoms: _554  and  _555
REMARK  231  A    between atoms: _558  and  _560
REMARK  232  A    between atoms: _560  and  _561
REMARK  233  A    between atoms: _560  and  _563
REMARK  234  A    between atoms: _563  and  _564
REMARK  235  A    between atoms: _567  and  _569
REMARK  236  A    between atoms: _569  and  _570
REMARK  237  A    between atoms: _569  and  _572
REMARK  238  A    between atoms: _572  and  _573
REMARK  239  A    between atoms: _573  and  _574
REMARK  240  A    between atoms: _577  and  _579
REMARK  241  A    between atoms: _579  and  _580
REMARK  242  A    between atoms: _579  and  _582
REMARK  243  A    between atoms: _582  and  _583
REMARK  244  A    between atoms: _583  and  _584
REMARK  245  A    between atoms: _589  and  _591
REMARK  246  A    between atoms: _591  and  _592
REMARK  247  A    between atoms: _594  and  _596
REMARK  248  A    between atoms: _596  and  _597
REMARK  249  A    between atoms: _596  and  _599
REMARK  250  A    between atoms: _599  and  _600
REMARK  251  A    between atoms: _600  and  _601
REMARK  252  A    between atoms: _606  and  _608
REMARK  253  A    between atoms: _608  and  _609
REMARK  254  A    between atoms: _608  and  _611
REMARK  255  A    between atoms: _611  and  _612
REMARK  256  A    between atoms: _615  and  _617
REMARK  257  A    between atoms: _617  and  _618
REMARK  258  A    between atoms: _617  and  _620
REMARK  259  A    between atoms: _620  and  _621
REMARK  260  A    between atoms: _627  and  _629
REMARK  261  A    between atoms: _629  and  _630
REMARK  262  A    between atoms: _632  and  _634
REMARK  263  A    between atoms: _634  and  _635
REMARK  264  A    between atoms: _634  and  _637
REMARK  265  A    between atoms: _637  and  _638
REMARK  266  A    between atoms: _638  and  _639
REMARK  267  A    between atoms: _643  and  _644
REMARK                            x       y       z     vdW  Elec       q    Type
REMARK                         _______ _______ _______ _____ _____    ______ ____
ROOT
ATOM      1  CA  LEU A   3      29.374  37.100  10.590  0.00  0.00    +0.149 C 
ENDROOT
BRANCH   1   2
ATOM      2  C   LEU A   3      30.224  38.045  11.444  0.00  0.00    +0.241 C 
ATOM      3  O   LEU A   3      29.705  38.782  12.274  0.00  0.00    -0.273 OA
ATOM      4  N   SER A   4      31.534  38.014  11.242  0.00  0.00    -0.295 N 
ATOM      5  H   SER A   4      31.918  37.404  10.492  0.00  0.00    +0.150 HD
BRANCH   4   6
ATOM      6  CA  SER A   4      32.448  38.814  12.045  0.00  0.00    +0.178 C 
BRANCH   6   7
ATOM      7  C   SER A   4      32.590  40.215  11.481  0.00  0.00    +0.243 C 
ATOM      8  N   ARG A   5      32.425  41.209  12.347  0.00  0.00    -0.298 N 
ATOM      9  H   ARG A   5      32.159  40.993  13.329  0.00  0.00    +0.150 HD
ATOM     10  O   SER A   4      32.845  40.392  10.283  0.00  0.00    -0.273 OA
BRANCH   8  11
ATOM     11  CA  ARG A   5      32.611  42.600  11.944  0.00  0.00    +0.137 C 
BRANCH  11  12
ATOM     12  C   ARG A   5      33.648  43.311  12.800  0.00  0.00    +0.227 C 
ATOM     13  O   ARG A   5      33.566  43.317  14.031  0.00  0.00    -0.286 OA
ENDBRANCH  11  12
BRANCH  11  14
ATOM     14  CB  ARG A   5      31.300  43.367  12.001  0.00  0.00    +0.031 C 
BRANCH  14  15
ATOM     15  CG  ARG A   5      30.400  43.098  10.832  0.00  0.00    +0.045 C 
BRANCH  15  16
ATOM     16  CD  ARG A   5      31.121  43.292   9.507  0.00  0.00    +0.174 C 
BRANCH  16  17
ATOM     17  NE  ARG A   5      30.238  42.941   8.393  0.00  0.00    -0.265 N 
ATOM     18  HE  ARG A   5      29.571  43.662   8.051  0.00  0.00    +0.259 HD
ATOM     19  CZ  ARG A   5      30.238  41.753   7.792  0.00  0.00    +0.342 C 
ATOM     20  NH2 ARG A   5      31.086  40.804   8.183  0.00  0.00    -0.292 N 
ATOM     21 HH21 ARG A   5      31.751  40.989   8.960  0.00  0.00    +0.255 HD
ATOM     22 HH22 ARG A   5      31.083  39.877   7.711  0.00  0.00    +0.255 HD
ATOM     23  NH1 ARG A   5      29.398  41.509   6.793  0.00  0.00    -0.292 N 
ATOM     24 HH11 ARG A   5      28.737  42.247   6.477  0.00  0.00    +0.255 HD
ATOM     25 HH12 ARG A   5      29.401  40.580   6.326  0.00  0.00    +0.255 HD
ENDBRANCH  16  17
ENDBRANCH  15  16
ENDBRANCH  14  15
ENDBRANCH  11  14
ENDBRANCH   8  11
ENDBRANCH   6   7
BRANCH   6  26
ATOM     26  CB  SER A   4      33.823  38.158  12.096  0.00  0.00    +0.166 C 
BRANCH  26  27
ATOM     27  OG  SER A   4      34.532  38.600  13.232  0.00  0.00    -0.380 OA
ATOM     28  H   SER A   4      34.027  38.359  14.049  0.00  0.00    +0.211 HD
ENDBRANCH  26  27
ENDBRANCH   6  26
ENDBRANCH   4   6
ENDBRANCH   1   2
BRANCH   1  30
ATOM     29  C   VAL A   2      28.315  35.204  11.708  0.00  0.00    +0.241 C 
ATOM     30  N   LEU A   3      28.324  36.498  11.397  0.00  0.00    -0.297 N 
ATOM     31  H   LEU A   3      27.551  37.101  11.744  0.00  0.00    +0.150 HD
ATOM     32  O   VAL A   2      29.159  34.398  11.313  0.00  0.00    -0.273 OA
BRANCH  29  33
ATOM     33  CA  VAL A   2      27.174  34.748  12.588  0.00  0.00    +0.148 C 
BRANCH  33  35
ATOM     34  C   LYS A   1      25.368  33.983  11.141  0.00  0.00    +0.238 C 
ATOM     35  N   VAL A   2      26.421  33.699  11.906  0.00  0.00    -0.297 N 
ATOM     36  H   VAL A   2      26.713  32.708  12.020  0.00  0.00    +0.150 HD
ATOM     37  O   LYS A   1      24.977  35.137  10.959  0.00  0.00    -0.274 OA
BRANCH  34  38
ATOM     38  CA  LYS A   1      24.626  32.795  10.500  0.00  0.00    +0.145 C 
BRANCH  38  39
ATOM     39  N   LYS A   1      23.210  32.927  10.742  0.00  0.00    -0.238 NA
ATOM     40  H   LYS A   1      22.584  33.248   9.976  0.00  0.00    +0.142 HD
ENDBRANCH  38  39
BRANCH  38  41
ATOM     41  CB  LYS A   1      24.891  32.723   8.996  0.00  0.00    +0.026 C 
BRANCH  41  42
ATOM     42  CG  LYS A   1      26.362  32.782   8.621  0.00  0.00    -0.000 C 
BRANCH  42  43
ATOM     43  CD  LYS A   1      27.157  31.648   9.254  0.00  0.00    -0.024 C 
BRANCH  43  44
ATOM     44  CE  LYS A   1      27.943  30.942   8.181  0.00  0.00    -0.086 C 
BRANCH  44  45
ATOM     45  NZ  LYS A   1      29.346  30.881   8.492  0.00  0.00    +0.380 N 
ATOM     46  HZ1 LYS A   1      29.480  30.366   9.385  0.00  0.00    -0.089 HD
ATOM     47  HZ2 LYS A   1      29.721  31.846   8.588  0.00  0.00    -0.089 HD
ATOM     48  HZ3 LYS A   1      29.848  30.387   7.727  0.00  0.00    -0.089 HD
ENDBRANCH  44  45
ENDBRANCH  43  44
ENDBRANCH  42  43
ENDBRANCH  41  42
ENDBRANCH  38  41
ENDBRANCH  34  38
ENDBRANCH  33  35
BRANCH  33  49
ATOM     49  CB  VAL A   2      27.769  34.265  13.917  0.00  0.00    +0.027 C 
ATOM     50  CG2 VAL A   2      26.671  33.800  14.869  0.00  0.00    +0.002 C 
ATOM     51  CG1 VAL A   2      28.618  35.357  14.546  0.00  0.00    +0.002 C 
ENDBRANCH  33  49
ENDBRANCH  29  33
ENDBRANCH   1  30
BRANCH   1  52
ATOM     52  CB  LEU A   3      28.764  37.861   9.423  0.00  0.00    +0.029 C 
BRANCH  52  53
ATOM     53  CG  LEU A   3      28.589  37.166   8.079  0.00  0.00    +0.002 C 
ATOM     54  CD2 LEU A   3      29.004  35.723   8.175  0.00  0.00    +0.000 C 
ATOM     55  CD1 LEU A   3      27.151  37.306   7.626  0.00  0.00    +0.000 C 
ENDBRANCH  52  53
ENDBRANCH   1  52
TORSDOF 24
REMARK  Name = ../refined-set-2016/3pju/3pju_pocket.pdb
REMARK  267 active torsions:
REMARK  status: ('A' for Active; 'I' for Inactive)
REMARK    1  A    between atoms: _1  and  _3
REMARK    2  A    between atoms: _3  and  _4
REMARK    3  A    between atoms: _3  and  _6
REMARK    4  A    between atoms: _6  and  _7
REMARK    5  A    between atoms: _13  and  _15
REMARK    6  A    between atoms: _15  and  _16
REMARK    7  A    between atoms: _15  and  _18
REMARK    8  A    between atoms: _18  and  _19
REMARK    9  A    between atoms: _19  and  _20
REMARK   10  A    between atoms: _23  and  _25
REMARK   11  A    between atoms: _25  and  _26
REMARK   12  A    between atoms: _25  and  _28
REMARK   13  A    between atoms: _28  and  _29
REMARK   14  A    between atoms: _32  and  _34
REMARK   15  A    between atoms: _34  and  _35
REMARK   16  A    between atoms: _34  and  _37
REMARK   17  A    between atoms: _37  and  _38
REMARK   18  A    between atoms: _44  and  _46
REMARK   19  A    between atoms: _46  and  _47
REMARK   20  A    between atoms: _46  and  _49
REMARK   21  A    between atoms: _49  and  _50
REMARK   22  A    between atoms: _50  and  _51
REMARK   23  A    between atoms: _56  and  _58
REMARK   24  A    between atoms: _58  and  _59
REMARK   25  A    between atoms: _58  and  _61
REMARK   26  A    between atoms: _64  and  _66
REMARK   27  A    between atoms: _66  and  _67
REMARK   28  A    between atoms: _66  and  _69
REMARK   29  A    between atoms: _69  and  _70
REMARK   30  A    between atoms: _70  and  _71
REMARK   31  A    between atoms: _71  and  _72
REMARK   32  A    between atoms: _72  and  _73
REMARK   33  A    between atoms: _77  and  _79
REMARK   34  A    between atoms: _79  and  _80
REMARK   35  A    between atoms: _79  and  _82
REMARK   36  A    between atoms: _85  and  _87
REMARK   37  A    between atoms: _87  and  _88
REMARK   38  A    between atoms: _87  and  _90
REMARK   39  A    between atoms: _90  and  _91
REMARK   40  A    between atoms: _94  and  _96
REMARK   41  A    between atoms: _96  and  _97
REMARK   42  A    between atoms: _96  and  _99
REMARK   43  A    between atoms: _99  and  _100
REMARK   44  A    between atoms: _102  and  _104
REMARK   45  A    between atoms: _104  and  _105
REMARK   46  A    between atoms: _104  and  _107
REMARK   47  A    between atoms: _107  and  _108
REMARK   48  A    between atoms: _108  and  _109
REMARK   49  A    between atoms: _109  and  _110
REMARK   50  A    between atoms: _119  and  _121
REMARK   51  A    between atoms: _121  and  _122
REMARK   52  A    between atoms: _121  and  _124
REMARK   53  A    between atoms: _124  and  _125
REMARK   54  A    between atoms: _129  and  _130
REMARK   55  A    between atoms: _135  and  _137
REMARK   56  A    between atoms: _137  and  _138
REMARK   57  A    between atoms: _141  and  _143
REMARK   58  A    between atoms: _143  and  _144
REMARK   59  A    between atoms: _146  and  _148
REMARK   60  A    between atoms: _148  and  _149
REMARK   61  A    between atoms: _148  and  _151
REMARK   62  A    between atoms: _151  and  _152
REMARK   63  A    between atoms: _152  and  _153
REMARK   64  A    between atoms: _153  and  _154
REMARK   65  A    between atoms: _163  and  _165
REMARK   66  A    between atoms: _165  and  _166
REMARK   67  A    between atoms: _165  and  _168
REMARK   68  A    between atoms: _168  and  _169
REMARK   69  A    between atoms: _175  and  _177
REMARK   70  A    between atoms: _177  and  _178
REMARK   71  A    between atoms: _177  and  _180
REMARK   72  A    between atoms: _180  and  _181
REMARK   73  A    between atoms: _185  and  _186
REMARK   74  A    between atoms: _191  and  _193
REMARK   75  A    between atoms: _193  and  _194
REMARK   76  A    between atoms: _193  and  _196
REMARK   77  A    between atoms: _196  and  _197
REMARK   78  A    between atoms: _200  and  _202
REMARK   79  A    between atoms: _202  and  _203
REMARK   80  A    between atoms: _202  and  _205
REMARK   81  A    between atoms: _205  and  _206
REMARK   82  A    between atoms: _206  and  _207
REMARK   83  A    between atoms: _210  and  _212
REMARK   84  A    between atoms: _212  and  _213
REMARK   85  A    between atoms: _212  and  _215
REMARK   86  A    between atoms: _215  and  _216
REMARK   87  A    between atoms: _219  and  _221
REMARK   88  A    between atoms: _221  and  _222
REMARK   89  A    between atoms: _225  and  _227
REMARK   90  A    between atoms: _227  and  _228
REMARK   91  A    between atoms: _227  and  _230
REMARK   92  A    between atoms: _230  and  _231
REMARK   93  A    between atoms: _234  and  _236
REMARK   94  A    between atoms: _236  and  _237
REMARK   95  A    between atoms: _236  and  _239
REMARK   96  A    between atoms: _239  and  _240
REMARK   97  A    between atoms: _243  and  _245
REMARK   98  A    between atoms: _245  and  _246
REMARK   99  A    between atoms: _245  and  _248
REMARK  100  A    between atoms: _248  and  _249
REMARK  101  A    between atoms: _249  and  _250
REMARK  102  A    between atoms: _250  and  _251
REMARK  103  A    between atoms: _260  and  _262
REMARK  104  A    between atoms: _262  and  _263
REMARK  105  A    between atoms: _262  and  _265
REMARK  106  A    between atoms: _265  and  _266
REMARK  107  A    between atoms: _269  and  _271
REMARK  108  A    between atoms: _271  and  _272
REMARK  109  A    between atoms: _271  and  _274
REMARK  110  A    between atoms: _274  and  _275
REMARK  111  A    between atoms: _275  and  _276
REMARK  112  A    between atoms: _278  and  _280
REMARK  113  A    between atoms: _280  and  _281
REMARK  114  A    between atoms: _280  and  _283
REMARK  115  A    between atoms: _283  and  _284
REMARK  116  A    between atoms: _287  and  _289
REMARK  117  A    between atoms: _289  and  _290
REMARK  118  A    between atoms: _289  and  _292
REMARK  119  A    between atoms: _295  and  _297
REMARK  120  A    between atoms: _297  and  _298
REMARK  121  A    between atoms: _301  and  _303
REMARK  122  A    between atoms: _303  and  _304
REMARK  123  A    between atoms: _303  and  _306
REMARK  124  A    between atoms: _306  and  _307
REMARK  125  A    between atoms: _310  and  _312
REMARK  126  A    between atoms: _312  and  _313
REMARK  127  A    between atoms: _312  and  _315
REMARK  128  A    between atoms: _315  and  _316
REMARK  129  A    between atoms: _321  and  _323
REMARK  130  A    between atoms: _323  and  _324
REMARK  131  A    between atoms: _323  and  _326
REMARK  132  A    between atoms: _326  and  _327
REMARK  133  A    between atoms: _330  and  _332
REMARK  134  A    between atoms: _332  and  _333
REMARK  135  A    between atoms: _332  and  _335
REMARK  136  A    between atoms: _335  and  _336
REMARK  137  A    between atoms: _338  and  _340
REMARK  138  A    between atoms: _340  and  _341
REMARK  139  A    between atoms: _340  and  _343
REMARK  140  A    between atoms: _343  and  _344
REMARK  141  A    between atoms: _346  and  _348
REMARK  142  A    between atoms: _348  and  _349
REMARK  143  A    between atoms: _352  and  _354
REMARK  144  A    between atoms: _354  and  _355
REMARK  145  A    between atoms: _354  and  _357
REMARK  146  A    between atoms: _357  and  _358
REMARK  147  A    between atoms: _361  and  _363
REMARK  148  A    between atoms: _363  and  _364
REMARK  149  A    between atoms: _363  and  _366
REMARK  150  A    between atoms: _366  and  _367
REMARK  151  A    between atoms: _367  and  _368
REMARK  152  A    between atoms: _371  and  _373
REMARK  153  A    between atoms: _373  and  _374
REMARK  154  A    between atoms: _373  and  _376
REMARK  155  A    between atoms: _376  and  _377
REMARK  156  A    between atoms: _380  and  _382
REMARK  157  A    between atoms: _382  and  _383
REMARK  158  A    between atoms: _385  and  _387
REMARK  159  A    between atoms: _387  and  _388
REMARK  160  A    between atoms: _387  and  _390
REMARK  161  A    between atoms: _390  and  _391
REMARK  162  A    between atoms: _391  and  _392
REMARK  163  A    between atoms: _395  and  _397
REMARK  164  A    between atoms: _397  and  _398
REMARK  165  A    between atoms: _397  and  _400
REMARK  166  A    between atoms: _400  and  _401
REMARK  167  A    between atoms: _401  and  _402
REMARK  168  A    between atoms: _405  and  _407
REMARK  169  A    between atoms: _407  and  _408
REMARK  170  A    between atoms: _407  and  _410
REMARK  171  A    between atoms: _410  and  _411
REMARK  172  A    between atoms: _411  and  _412
REMARK  173  A    between atoms: _417  and  _419
REMARK  174  A    between atoms: _419  and  _420
REMARK  175  A    between atoms: _419  and  _422
REMARK  176  A    between atoms: _422  and  _423
REMARK  177  A    between atoms: _423  and  _424
REMARK  178  A    between atoms: _429  and  _431
REMARK  179  A    between atoms: _431  and  _432
REMARK  180  A    between atoms: _431  and  _434
REMARK  181  A    between atoms: _434  and  _435
REMARK  182  A    between atoms: _435  and  _436
REMARK  183  A    between atoms: _436  and  _437
REMARK  184  A    between atoms: _446  and  _448
REMARK  185  A    between atoms: _448  and  _449
REMARK  186  A    between atoms: _448  and  _451
REMARK  187  A    between atoms: _451  and  _452
REMARK  188  A    between atoms: _457  and  _458
REMARK  189  A    between atoms: _460  and  _462
REMARK  190  A    between atoms: _462  and  _463
REMARK  191  A    between atoms: _462  and  _465
REMARK  192  A    between atoms: _465  and  _466
REMARK  193  A    between atoms: _466  and  _467
REMARK  194  A    between atoms: _467  and  _468
REMARK  195  A    between atoms: _468  and  _469
REMARK  196  A    between atoms: _473  and  _475
REMARK  197  A    between atoms: _475  and  _476
REMARK  198  A    between atoms: _475  and  _478
REMARK  199  A    between atoms: _478  and  _479
REMARK  200  A    between atoms: _482  and  _484
REMARK  201  A    between atoms: _484  and  _485
REMARK  202  A    between atoms: _487  and  _489
REMARK  203  A    between atoms: _489  and  _490
REMARK  204  A    between atoms: _489  and  _492
REMARK  205  A    between atoms: _492  and  _493
REMARK  206  A    between atoms: _496  and  _498
REMARK  207  A    between atoms: _498  and  _499
REMARK  208  A    between atoms: _498  and  _501
REMARK  209  A    between atoms: _501  and  _502
REMARK  210  A    between atoms: _502  and  _503
REMARK  211  A    between atoms: _503  and  _504
REMARK  212  A    between atoms: _513  and  _515
REMARK  213  A    between atoms: _515  and  _516
REMARK  214  A    between atoms: _515  and  _518
REMARK  215  A    between atoms: _518  and  _519
REMARK  216  A    between atoms: _519  and  _520
REMARK  217  A    between atoms: _523  and  _525
REMARK  218  A    between atoms: _525  and  _526
REMARK  219  A    between atoms: _525  and  _528
REMARK  220  A    between atoms: _528  and  _529
REMARK  221  A    between atoms: _529  and  _530
REMARK  222  A    between atoms: _530  and  _531
REMARK  223  A    between atoms: _540  and  _542
REMARK  224  A    between atoms: _542  and  _543
REMARK  225  A    between atoms: _542  and  _545
REMARK  226  A    between atoms: _548  and  _550
REMARK  227  A    between atoms: _550  and  _551
REMARK  228  A    between atoms: _550  and  _553
REMARK  229  A    between atoms: _553  and  _554
REMARK  230  A    between atoms: _554  and  _555
REMARK  231  A    between atoms: _558  and  _560
REMARK  232  A    between atoms: _560  and  _561
REMARK  233  A    between atoms: _560  and  _563
REMARK  234  A    between atoms: _563  and  _564
REMARK  235  A    between atoms: _567  and  _569
REMARK  236  A    between atoms: _569  and  _570
REMARK  237  A    between atoms: _569  and  _572
REMARK  238  A    between atoms: _572  and  _573
REMARK  239  A    between atoms: _573  and  _574
REMARK  240  A    between atoms: _577  and  _579
REMARK  241  A    between atoms: _579  and  _580
REMARK  242  A    between atoms: _579  and  _582
REMARK  243  A    between atoms: _582  and  _583
REMARK  244  A    between atoms: _583  and  _584
REMARK  245  A    between atoms: _589  and  _591
REMARK  246  A    between atoms: _591  and  _592
REMARK  247  A    between atoms: _594  and  _596
REMARK  248  A    between atoms: _596  and  _597
REMARK  249  A    between atoms: _596  and  _599
REMARK  250  A    between atoms: _599  and  _600
REMARK  251  A    between atoms: _600  and  _601
REMARK  252  A    between atoms: _606  and  _608
REMARK  253  A    between atoms: _608  and  _609
REMARK  254  A    between atoms: _608  and  _611
REMARK  255  A    between atoms: _611  and  _612
REMARK  256  A    between atoms: _615  and  _617
REMARK  257  A    between atoms: _617  and  _618
REMARK  258  A    between atoms: _617  and  _620
REMARK  259  A    between atoms: _620  and  _621
REMARK  260  A    between atoms: _627  and  _629
REMARK  261  A    between atoms: _629  and  _630
REMARK  262  A    between atoms: _632  and  _634
REMARK  263  A    between atoms: _634  and  _635
REMARK  264  A    between atoms: _634  and  _637
REMARK  265  A    between atoms: _637  and  _638
REMARK  266  A    between atoms: _638  and  _639
REMARK  267  A    between atoms: _643  and  _644
REMARK                            x       y       z     vdW  Elec       q    Type
REMARK                         _______ _______ _______ _____ _____    ______ ____
ROOT
ATOM      1  CA  ARG A   5      38.187  42.159   3.966  0.00  0.00    +0.149 C 
ENDROOT
BRANCH   1   3
ATOM      2  C   GLY A   4      37.077  40.046   3.448  0.00  0.00    +0.243 C 
ATOM      3  N   ARG A   5      37.080  41.208   4.095  0.00  0.00    -0.297 N 
ATOM      4  H   ARG A   5      36.275  41.448   4.709  0.00  0.00    +0.150 HD
ATOM      5  O   GLY A   4      38.023  39.663   2.755  0.00  0.00    -0.273 OA
BRANCH   2   6
ATOM      6  CA  GLY A   4      35.834  39.193   3.607  0.00  0.00    +0.176 C 
BRANCH   6   9
ATOM      7  C   ALA A   3      35.948  39.179   6.010  0.00  0.00    +0.241 C 
ATOM      8  O   ALA A   3      37.124  38.817   5.965  0.00  0.00    -0.273 OA
ATOM      9  N   GLY A   4      35.227  39.353   4.914  0.00  0.00    -0.295 N 
ATOM     10  H   GLY A   4      34.221  39.606   4.990  0.00  0.00    +0.150 HD
BRANCH   7  11
ATOM     11  CA  ALA A   3      35.255  39.451   7.345  0.00  0.00    +0.149 C 
ATOM     12  CB  ALA A   3      34.496  38.233   7.798  0.00  0.00    +0.031 C 
BRANCH  11  14
ATOM     13  C   PRO A   2      34.726  41.767   6.754  0.00  0.00    +0.241 C 
ATOM     14  N   ALA A   3      34.361  40.601   7.283  0.00  0.00    -0.297 N 
ATOM     15  H   ALA A   3      33.399  40.507   7.668  0.00  0.00    +0.150 HD
ATOM     16  O   PRO A   2      35.853  41.983   6.312  0.00  0.00    -0.273 OA
BRANCH  13  20
ATOM     17  C   ILE A   1      34.558  44.673   8.102  0.00  0.00    +0.241 C 
ATOM     18  O   ILE A   1      34.580  43.959   9.112  0.00  0.00    -0.273 OA
ATOM     19  N   PRO A   2      34.184  44.217   6.899  0.00  0.00    -0.272 N 
ATOM     20  CA  PRO A   2      33.652  42.860   6.707  0.00  0.00    +0.152 C 
ATOM     21  CB  PRO A   2      33.016  42.932   5.316  0.00  0.00    +0.031 C 
ATOM     22  CG  PRO A   2      33.816  43.987   4.597  0.00  0.00    +0.024 C 
ATOM     23  CD  PRO A   2      34.196  45.001   5.650  0.00  0.00    +0.094 C 
BRANCH  17  24
ATOM     24  CA  ILE A   1      34.979  46.137   8.180  0.00  0.00    +0.145 C 
BRANCH  24  25
ATOM     25  N   ILE A   1      34.213  46.837   9.210  0.00  0.00    -0.238 NA
ATOM     26  H   ILE A   1      34.309  46.531  10.199  0.00  0.00    +0.142 HD
ENDBRANCH  24  25
BRANCH  24  27
ATOM     27  CB  ILE A   1      36.493  46.188   8.481  0.00  0.00    +0.025 C 
ATOM     28  CG2 ILE A   1      37.308  45.673   7.286  0.00  0.00    +0.002 C 
BRANCH  27  29
ATOM     29  CG1 ILE A   1      36.901  47.605   8.890  0.00  0.00    +0.002 C 
ATOM     30  CD1 ILE A   1      38.154  47.650   9.744  0.00  0.00    +0.000 C 
ENDBRANCH  27  29
ENDBRANCH  24  27
ENDBRANCH  17  24
ENDBRANCH  13  20
ENDBRANCH  11  14
ENDBRANCH   7  11
ENDBRANCH   6   9
ENDBRANCH   2   6
ENDBRANCH   1   3
BRANCH   1  31
ATOM     31  C   ARG A   5      39.384  41.805   4.855  0.00  0.00    +0.241 C 
ATOM     32  N   PHE A   6      39.134  41.420   6.105  0.00  0.00    -0.297 N 
ATOM     33  H   PHE A   6      38.154  41.269   6.417  0.00  0.00    +0.150 HD
ATOM     34  O   ARG A   5      40.524  41.872   4.409  0.00  0.00    -0.273 OA
BRANCH  32  35
ATOM     35  CA  PHE A   6      40.238  41.210   7.036  0.00  0.00    +0.153 C 
BRANCH  35  36
ATOM     36  C   PHE A   6      40.780  39.784   7.143  0.00  0.00    +0.241 C 
ATOM     37  O   PHE A   6      41.967  39.596   7.433  0.00  0.00    -0.273 OA
ATOM     38  N   LEU A   7      39.931  38.786   6.902  0.00  0.00    -0.297 N 
ATOM     39  H   LEU A   7      38.958  39.002   6.604  0.00  0.00    +0.150 HD
BRANCH  38  40
ATOM     40  CA  LEU A   7      40.346  37.388   7.050  0.00  0.00    +0.149 C 
BRANCH  40  41
ATOM     41  C   LEU A   7      41.620  37.048   6.285  0.00  0.00    +0.244 C 
ATOM     42  O   LEU A   7      42.467  36.324   6.800  0.00  0.00    -0.273 OA
ATOM     43  N   PRO A   8      41.768  37.563   5.056  0.00  0.00    -0.273 N 
ATOM     44  CA  PRO A   8      43.027  37.280   4.351  0.00  0.00    +0.140 C 
ATOM     45  CB  PRO A   8      42.842  37.984   3.005  0.00  0.00    +0.030 C 
ATOM     46  CG  PRO A   8      41.364  37.991   2.806  0.00  0.00    +0.024 C 
ATOM     47  CD  PRO A   8      40.779  38.210   4.179  0.00  0.00    +0.094 C 
BRANCH  44  48
ATOM     48  C   PRO A   8      44.263  37.810   5.071  0.00  0.00    +0.227 C 
ATOM     49  O   PRO A   8      45.337  37.223   4.919  0.00  0.00    -0.286 OA
ENDBRANCH  44  48
ENDBRANCH  40  41
BRANCH  40  50
ATOM     50  CB  LEU A   7      39.218  36.429   6.680  0.00  0.00    +0.029 C 
BRANCH  50  51
ATOM     51  CG  LEU A   7      38.183  36.284   7.786  0.00  0.00    +0.002 C 
ATOM     52  CD2 LEU A   7      38.791  35.582   8.968  0.00  0.00    +0.000 C 
ATOM     53  CD1 LEU A   7      36.984  35.538   7.288  0.00  0.00    +0.000 C 
ENDBRANCH  50  51
ENDBRANCH  40  50
ENDBRANCH  38  40
ENDBRANCH  35  36
BRANCH  35  54
ATOM     54  CB  PHE A   6      39.944  41.805   8.425  0.00  0.00    +0.055 C 
BRANCH  54  55
ATOM     55  CG  PHE A   6      38.775  41.180   9.146  0.00  0.00    -0.020 A 
ATOM     56  CD2 PHE A   6      38.895  39.938   9.754  0.00  0.00    -0.004 A 
ATOM     57  CE2 PHE A   6      37.815  39.375  10.443  0.00  0.00    -0.000 A 
ATOM     58  CZ  PHE A   6      36.602  40.066  10.540  0.00  0.00    -0.000 A 
ATOM     59  CE1 PHE A   6      36.485  41.309   9.952  0.00  0.00    -0.000 A 
ATOM     60  CD1 PHE A   6      37.570  41.863   9.265  0.00  0.00    -0.004 A 
ENDBRANCH  54  55
ENDBRANCH  35  54
ENDBRANCH  32  35
ENDBRANCH   1  31
BRANCH   1  61
ATOM     61  CB  ARG A   5      37.701  43.588   4.263  0.00  0.00    +0.033 C 
BRANCH  61  62
ATOM     62  CG  ARG A   5      38.763  44.678   4.131  0.00  0.00    +0.045 C 
BRANCH  62  63
ATOM     63  CD  ARG A   5      39.141  44.930   2.675  0.00  0.00    +0.174 C 
BRANCH  63  64
ATOM     64  NE  ARG A   5      40.304  45.802   2.559  0.00  0.00    -0.265 N 
ATOM     65  CZ  ARG A   5      40.253  47.132   2.594  0.00  0.00    +0.342 C 
ATOM     66  NH2 ARG A   5      39.086  47.754   2.741  0.00  0.00    -0.292 N 
ATOM     67 HH21 ARG A   5      38.210  47.201   2.829  0.00  0.00    +0.255 HD
ATOM     68 HH22 ARG A   5      39.050  48.793   2.768  0.00  0.00    +0.255 HD
ATOM     69  NH1 ARG A   5      41.374  47.838   2.483  0.00  0.00    -0.292 N 
ATOM     70 HH11 ARG A   5      41.339  48.877   2.510  0.00  0.00    +0.255 HD
ATOM     71 HH12 ARG A   5      42.286  47.351   2.369  0.00  0.00    +0.255 HD
ATOM     72  HE  ARG A   5      41.236  45.355   2.441  0.00  0.00    +0.259 HD
ENDBRANCH  63  64
ENDBRANCH  62  63
ENDBRANCH  61  62
ENDBRANCH   1  61
TORSDOF 24
REMARK  Name = ../refined-set-2016/3pju/3pju_pocket.pdb
REMARK  267 active torsions:
REMARK  status: ('A' for Active; 'I' for Inactive)
REMARK    1  A    between atoms: _1  and  _3
REMARK    2  A    between atoms: _3  and  _4
REMARK    3  A    between atoms: _3  and  _6
REMARK    4  A    between atoms: _6  and  _7
REMARK    5  A    between atoms: _13  and  _15
REMARK    6  A    between atoms: _15  and  _16
REMARK    7  A    between atoms: _15  and  _18
REMARK    8  A    between atoms: _18  and  _19
REMARK    9  A    between atoms: _19  and  _20
REMARK   10  A    between atoms: _23  and  _25
REMARK   11  A    between atoms: _25  and  _26
REMARK   12  A    between atoms: _25  and  _28
REMARK   13  A    between atoms: _28  and  _29
REMARK   14  A    between atoms: _32  and  _34
REMARK   15  A    between atoms: _34  and  _35
REMARK   16  A    between atoms: _34  and  _37
REMARK   17  A    between atoms: _37  and  _38
REMARK   18  A    between atoms: _44  and  _46
REMARK   19  A    between atoms: _46  and  _47
REMARK   20  A    between atoms: _46  and  _49
REMARK   21  A    between atoms: _49  and  _50
REMARK   22  A    between atoms: _50  and  _51
REMARK   23  A    between atoms: _56  and  _58
REMARK   24  A    between atoms: _58  and  _59
REMARK   25  A    between atoms: _58  and  _61
REMARK   26  A    between atoms: _64  and  _66
REMARK   27  A    between atoms: _66  and  _67
REMARK   28  A    between atoms: _66  and  _69
REMARK   29  A    between atoms: _69  and  _70
REMARK   30  A    between atoms: _70  and  _71
REMARK   31  A    between atoms: _71  and  _72
REMARK   32  A    between atoms: _72  and  _73
REMARK   33  A    between atoms: _77  and  _79
REMARK   34  A    between atoms: _79  and  _80
REMARK   35  A    between atoms: _79  and  _82
REMARK   36  A    between atoms: _85  and  _87
REMARK   37  A    between atoms: _87  and  _88
REMARK   38  A    between atoms: _87  and  _90
REMARK   39  A    between atoms: _90  and  _91
REMARK   40  A    between atoms: _94  and  _96
REMARK   41  A    between atoms: _96  and  _97
REMARK   42  A    between atoms: _96  and  _99
REMARK   43  A    between atoms: _99  and  _100
REMARK   44  A    between atoms: _102  and  _104
REMARK   45  A    between atoms: _104  and  _105
REMARK   46  A    between atoms: _104  and  _107
REMARK   47  A    between atoms: _107  and  _108
REMARK   48  A    between atoms: _108  and  _109
REMARK   49  A    between atoms: _109  and  _110
REMARK   50  A    between atoms: _119  and  _121
REMARK   51  A    between atoms: _121  and  _122
REMARK   52  A    between atoms: _121  and  _124
REMARK   53  A    between atoms: _124  and  _125
REMARK   54  A    between atoms: _129  and  _130
REMARK   55  A    between atoms: _135  and  _137
REMARK   56  A    between atoms: _137  and  _138
REMARK   57  A    between atoms: _141  and  _143
REMARK   58  A    between atoms: _143  and  _144
REMARK   59  A    between atoms: _146  and  _148
REMARK   60  A    between atoms: _148  and  _149
REMARK   61  A    between atoms: _148  and  _151
REMARK   62  A    between atoms: _151  and  _152
REMARK   63  A    between atoms: _152  and  _153
REMARK   64  A    between atoms: _153  and  _154
REMARK   65  A    between atoms: _163  and  _165
REMARK   66  A    between atoms: _165  and  _166
REMARK   67  A    between atoms: _165  and  _168
REMARK   68  A    between atoms: _168  and  _169
REMARK   69  A    between atoms: _175  and  _177
REMARK   70  A    between atoms: _177  and  _178
REMARK   71  A    between atoms: _177  and  _180
REMARK   72  A    between atoms: _180  and  _181
REMARK   73  A    between atoms: _185  and  _186
REMARK   74  A    between atoms: _191  and  _193
REMARK   75  A    between atoms: _193  and  _194
REMARK   76  A    between atoms: _193  and  _196
REMARK   77  A    between atoms: _196  and  _197
REMARK   78  A    between atoms: _200  and  _202
REMARK   79  A    between atoms: _202  and  _203
REMARK   80  A    between atoms: _202  and  _205
REMARK   81  A    between atoms: _205  and  _206
REMARK   82  A    between atoms: _206  and  _207
REMARK   83  A    between atoms: _210  and  _212
REMARK   84  A    between atoms: _212  and  _213
REMARK   85  A    between atoms: _212  and  _215
REMARK   86  A    between atoms: _215  and  _216
REMARK   87  A    between atoms: _219  and  _221
REMARK   88  A    between atoms: _221  and  _222
REMARK   89  A    between atoms: _225  and  _227
REMARK   90  A    between atoms: _227  and  _228
REMARK   91  A    between atoms: _227  and  _230
REMARK   92  A    between atoms: _230  and  _231
REMARK   93  A    between atoms: _234  and  _236
REMARK   94  A    between atoms: _236  and  _237
REMARK   95  A    between atoms: _236  and  _239
REMARK   96  A    between atoms: _239  and  _240
REMARK   97  A    between atoms: _243  and  _245
REMARK   98  A    between atoms: _245  and  _246
REMARK   99  A    between atoms: _245  and  _248
REMARK  100  A    between atoms: _248  and  _249
REMARK  101  A    between atoms: _249  and  _250
REMARK  102  A    between atoms: _250  and  _251
REMARK  103  A    between atoms: _260  and  _262
REMARK  104  A    between atoms: _262  and  _263
REMARK  105  A    between atoms: _262  and  _265
REMARK  106  A    between atoms: _265  and  _266
REMARK  107  A    between atoms: _269  and  _271
REMARK  108  A    between atoms: _271  and  _272
REMARK  109  A    between atoms: _271  and  _274
REMARK  110  A    between atoms: _274  and  _275
REMARK  111  A    between atoms: _275  and  _276
REMARK  112  A    between atoms: _278  and  _280
REMARK  113  A    between atoms: _280  and  _281
REMARK  114  A    between atoms: _280  and  _283
REMARK  115  A    between atoms: _283  and  _284
REMARK  116  A    between atoms: _287  and  _289
REMARK  117  A    between atoms: _289  and  _290
REMARK  118  A    between atoms: _289  and  _292
REMARK  119  A    between atoms: _295  and  _297
REMARK  120  A    between atoms: _297  and  _298
REMARK  121  A    between atoms: _301  and  _303
REMARK  122  A    between atoms: _303  and  _304
REMARK  123  A    between atoms: _303  and  _306
REMARK  124  A    between atoms: _306  and  _307
REMARK  125  A    between atoms: _310  and  _312
REMARK  126  A    between atoms: _312  and  _313
REMARK  127  A    between atoms: _312  and  _315
REMARK  128  A    between atoms: _315  and  _316
REMARK  129  A    between atoms: _321  and  _323
REMARK  130  A    between atoms: _323  and  _324
REMARK  131  A    between atoms: _323  and  _326
REMARK  132  A    between atoms: _326  and  _327
REMARK  133  A    between atoms: _330  and  _332
REMARK  134  A    between atoms: _332  and  _333
REMARK  135  A    between atoms: _332  and  _335
REMARK  136  A    between atoms: _335  and  _336
REMARK  137  A    between atoms: _338  and  _340
REMARK  138  A    between atoms: _340  and  _341
REMARK  139  A    between atoms: _340  and  _343
REMARK  140  A    between atoms: _343  and  _344
REMARK  141  A    between atoms: _346  and  _348
REMARK  142  A    between atoms: _348  and  _349
REMARK  143  A    between atoms: _352  and  _354
REMARK  144  A    between atoms: _354  and  _355
REMARK  145  A    between atoms: _354  and  _357
REMARK  146  A    between atoms: _357  and  _358
REMARK  147  A    between atoms: _361  and  _363
REMARK  148  A    between atoms: _363  and  _364
REMARK  149  A    between atoms: _363  and  _366
REMARK  150  A    between atoms: _366  and  _367
REMARK  151  A    between atoms: _367  and  _368
REMARK  152  A    between atoms: _371  and  _373
REMARK  153  A    between atoms: _373  and  _374
REMARK  154  A    between atoms: _373  and  _376
REMARK  155  A    between atoms: _376  and  _377
REMARK  156  A    between atoms: _380  and  _382
REMARK  157  A    between atoms: _382  and  _383
REMARK  158  A    between atoms: _385  and  _387
REMARK  159  A    between atoms: _387  and  _388
REMARK  160  A    between atoms: _387  and  _390
REMARK  161  A    between atoms: _390  and  _391
REMARK  162  A    between atoms: _391  and  _392
REMARK  163  A    between atoms: _395  and  _397
REMARK  164  A    between atoms: _397  and  _398
REMARK  165  A    between atoms: _397  and  _400
REMARK  166  A    between atoms: _400  and  _401
REMARK  167  A    between atoms: _401  and  _402
REMARK  168  A    between atoms: _405  and  _407
REMARK  169  A    between atoms: _407  and  _408
REMARK  170  A    between atoms: _407  and  _410
REMARK  171  A    between atoms: _410  and  _411
REMARK  172  A    between atoms: _411  and  _412
REMARK  173  A    between atoms: _417  and  _419
REMARK  174  A    between atoms: _419  and  _420
REMARK  175  A    between atoms: _419  and  _422
REMARK  176  A    between atoms: _422  and  _423
REMARK  177  A    between atoms: _423  and  _424
REMARK  178  A    between atoms: _429  and  _431
REMARK  179  A    between atoms: _431  and  _432
REMARK  180  A    between atoms: _431  and  _434
REMARK  181  A    between atoms: _434  and  _435
REMARK  182  A    between atoms: _435  and  _436
REMARK  183  A    between atoms: _436  and  _437
REMARK  184  A    between atoms: _446  and  _448
REMARK  185  A    between atoms: _448  and  _449
REMARK  186  A    between atoms: _448  and  _451
REMARK  187  A    between atoms: _451  and  _452
REMARK  188  A    between atoms: _457  and  _458
REMARK  189  A    between atoms: _460  and  _462
REMARK  190  A    between atoms: _462  and  _463
REMARK  191  A    between atoms: _462  and  _465
REMARK  192  A    between atoms: _465  and  _466
REMARK  193  A    between atoms: _466  and  _467
REMARK  194  A    between atoms: _467  and  _468
REMARK  195  A    between atoms: _468  and  _469
REMARK  196  A    between atoms: _473  and  _475
REMARK  197  A    between atoms: _475  and  _476
REMARK  198  A    between atoms: _475  and  _478
REMARK  199  A    between atoms: _478  and  _479
REMARK  200  A    between atoms: _482  and  _484
REMARK  201  A    between atoms: _484  and  _485
REMARK  202  A    between atoms: _487  and  _489
REMARK  203  A    between atoms: _489  and  _490
REMARK  204  A    between atoms: _489  and  _492
REMARK  205  A    between atoms: _492  and  _493
REMARK  206  A    between atoms: _496  and  _498
REMARK  207  A    between atoms: _498  and  _499
REMARK  208  A    between atoms: _498  and  _501
REMARK  209  A    between atoms: _501  and  _502
REMARK  210  A    between atoms: _502  and  _503
REMARK  211  A    between atoms: _503  and  _504
REMARK  212  A    between atoms: _513  and  _515
REMARK  213  A    between atoms: _515  and  _516
REMARK  214  A    between atoms: _515  and  _518
REMARK  215  A    between atoms: _518  and  _519
REMARK  216  A    between atoms: _519  and  _520
REMARK  217  A    between atoms: _523  and  _525
REMARK  218  A    between atoms: _525  and  _526
REMARK  219  A    between atoms: _525  and  _528
REMARK  220  A    between atoms: _528  and  _529
REMARK  221  A    between atoms: _529  and  _530
REMARK  222  A    between atoms: _530  and  _531
REMARK  223  A    between atoms: _540  and  _542
REMARK  224  A    between atoms: _542  and  _543
REMARK  225  A    between atoms: _542  and  _545
REMARK  226  A    between atoms: _548  and  _550
REMARK  227  A    between atoms: _550  and  _551
REMARK  228  A    between atoms: _550  and  _553
REMARK  229  A    between atoms: _553  and  _554
REMARK  230  A    between atoms: _554  and  _555
REMARK  231  A    between atoms: _558  and  _560
REMARK  232  A    between atoms: _560  and  _561
REMARK  233  A    between atoms: _560  and  _563
REMARK  234  A    between atoms: _563  and  _564
REMARK  235  A    between atoms: _567  and  _569
REMARK  236  A    between atoms: _569  and  _570
REMARK  237  A    between atoms: _569  and  _572
REMARK  238  A    between atoms: _572  and  _573
REMARK  239  A    between atoms: _573  and  _574
REMARK  240  A    between atoms: _577  and  _579
REMARK  241  A    between atoms: _579  and  _580
REMARK  242  A    between atoms: _579  and  _582
REMARK  243  A    between atoms: _582  and  _583
REMARK  244  A    between atoms: _583  and  _584
REMARK  245  A    between atoms: _589  and  _591
REMARK  246  A    between atoms: _591  and  _592
REMARK  247  A    between atoms: _594  and  _596
REMARK  248  A    between atoms: _596  and  _597
REMARK  249  A    between atoms: _596  and  _599
REMARK  250  A    between atoms: _599  and  _600
REMARK  251  A    between atoms: _600  and  _601
REMARK  252  A    between atoms: _606  and  _608
REMARK  253  A    between atoms: _608  and  _609
REMARK  254  A    between atoms: _608  and  _611
REMARK  255  A    between atoms: _611  and  _612
REMARK  256  A    between atoms: _615  and  _617
REMARK  257  A    between atoms: _617  and  _618
REMARK  258  A    between atoms: _617  and  _620
REMARK  259  A    between atoms: _620  and  _621
REMARK  260  A    between atoms: _627  and  _629
REMARK  261  A    between atoms: _629  and  _630
REMARK  262  A    between atoms: _632  and  _634
REMARK  263  A    between atoms: _634  and  _635
REMARK  264  A    between atoms: _634  and  _637
REMARK  265  A    between atoms: _637  and  _638
REMARK  266  A    between atoms: _638  and  _639
REMARK  267  A    between atoms: _643  and  _644
REMARK                            x       y       z     vdW  Elec       q    Type
REMARK                         _______ _______ _______ _____ _____    ______ ____
ROOT
ATOM      1  C   LEU A   1      45.212  36.141   9.311  0.00  0.00    +0.238 C 
ATOM      2  O   LEU A   1      45.977  35.583  10.098  0.00  0.00    -0.274 OA
ATOM      3  N   GLU A   2      44.965  35.666   8.094  0.00  0.00    -0.298 N 
ATOM      4  H   GLU A   2      44.271  36.150   7.490  0.00  0.00    +0.150 HD
ENDROOT
BRANCH   1   5
ATOM      5  CA  LEU A   1      44.497  37.439   9.691  0.00  0.00    +0.145 C 
BRANCH   5   6
ATOM      6  N   LEU A   1      44.381  38.284   8.512  0.00  0.00    -0.238 NA
ATOM      7  H   LEU A   1      43.439  38.556   8.166  0.00  0.00    +0.142 HD
ENDBRANCH   5   6
BRANCH   5   8
ATOM      8  CB  LEU A   1      43.118  37.142  10.253  0.00  0.00    +0.026 C 
BRANCH   8   9
ATOM      9  CG  LEU A   1      42.700  37.713  11.607  0.00  0.00    +0.002 C 
ATOM     10  CD2 LEU A   1      43.371  39.034  11.914  0.00  0.00    +0.000 C 
ATOM     11  CD1 LEU A   1      41.181  37.844  11.651  0.00  0.00    +0.000 C 
ENDBRANCH   8   9
ENDBRANCH   5   8
ENDBRANCH   1   5
BRANCH   3  12
ATOM     12  CA  GLU A   2      45.649  34.479   7.589  0.00  0.00    +0.137 C 
BRANCH  12  13
ATOM     13  C   GLU A   2      47.120  34.795   7.454  0.00  0.00    +0.227 C 
ATOM     14  O   GLU A   2      47.967  34.099   8.015  0.00  0.00    -0.286 OA
ENDBRANCH  12  13
BRANCH  12  15
ATOM     15  CB  GLU A   2      45.096  34.042   6.222  0.00  0.00    +0.039 C 
BRANCH  15  16
ATOM     16  CG  GLU A   2      43.865  33.131   6.280  0.00  0.00    +0.116 C 
BRANCH  16  17
ATOM     17  CD  GLU A   2      43.054  33.133   4.971  0.00  0.00    +0.365 C 
ATOM     18  OE2 GLU A   2      41.801  33.026   5.041  0.00  0.00    -0.246 OA
ATOM     19  OE1 GLU A   2      43.665  33.247   3.878  0.00  0.00    -0.246 OA
ENDBRANCH  16  17
ENDBRANCH  15  16
ENDBRANCH  12  15
ENDBRANCH   3  12
TORSDOF 9
REMARK  Name = ../refined-set-2016/3pju/3pju_pocket.pdb
REMARK  267 active torsions:
REMARK  status: ('A' for Active; 'I' for Inactive)
REMARK    1  A    between atoms: _1  and  _3
REMARK    2  A    between atoms: _3  and  _4
REMARK    3  A    between atoms: _3  and  _6
REMARK    4  A    between atoms: _6  and  _7
REMARK    5  A    between atoms: _13  and  _15
REMARK    6  A    between atoms: _15  and  _16
REMARK    7  A    between atoms: _15  and  _18
REMARK    8  A    between atoms: _18  and  _19
REMARK    9  A    between atoms: _19  and  _20
REMARK   10  A    between atoms: _23  and  _25
REMARK   11  A    between atoms: _25  and  _26
REMARK   12  A    between atoms: _25  and  _28
REMARK   13  A    between atoms: _28  and  _29
REMARK   14  A    between atoms: _32  and  _34
REMARK   15  A    between atoms: _34  and  _35
REMARK   16  A    between atoms: _34  and  _37
REMARK   17  A    between atoms: _37  and  _38
REMARK   18  A    between atoms: _44  and  _46
REMARK   19  A    between atoms: _46  and  _47
REMARK   20  A    between atoms: _46  and  _49
REMARK   21  A    between atoms: _49  and  _50
REMARK   22  A    between atoms: _50  and  _51
REMARK   23  A    between atoms: _56  and  _58
REMARK   24  A    between atoms: _58  and  _59
REMARK   25  A    between atoms: _58  and  _61
REMARK   26  A    between atoms: _64  and  _66
REMARK   27  A    between atoms: _66  and  _67
REMARK   28  A    between atoms: _66  and  _69
REMARK   29  A    between atoms: _69  and  _70
REMARK   30  A    between atoms: _70  and  _71
REMARK   31  A    between atoms: _71  and  _72
REMARK   32  A    between atoms: _72  and  _73
REMARK   33  A    between atoms: _77  and  _79
REMARK   34  A    between atoms: _79  and  _80
REMARK   35  A    between atoms: _79  and  _82
REMARK   36  A    between atoms: _85  and  _87
REMARK   37  A    between atoms: _87  and  _88
REMARK   38  A    between atoms: _87  and  _90
REMARK   39  A    between atoms: _90  and  _91
REMARK   40  A    between atoms: _94  and  _96
REMARK   41  A    between atoms: _96  and  _97
REMARK   42  A    between atoms: _96  and  _99
REMARK   43  A    between atoms: _99  and  _100
REMARK   44  A    between atoms: _102  and  _104
REMARK   45  A    between atoms: _104  and  _105
REMARK   46  A    between atoms: _104  and  _107
REMARK   47  A    between atoms: _107  and  _108
REMARK   48  A    between atoms: _108  and  _109
REMARK   49  A    between atoms: _109  and  _110
REMARK   50  A    between atoms: _119  and  _121
REMARK   51  A    between atoms: _121  and  _122
REMARK   52  A    between atoms: _121  and  _124
REMARK   53  A    between atoms: _124  and  _125
REMARK   54  A    between atoms: _129  and  _130
REMARK   55  A    between atoms: _135  and  _137
REMARK   56  A    between atoms: _137  and  _138
REMARK   57  A    between atoms: _141  and  _143
REMARK   58  A    between atoms: _143  and  _144
REMARK   59  A    between atoms: _146  and  _148
REMARK   60  A    between atoms: _148  and  _149
REMARK   61  A    between atoms: _148  and  _151
REMARK   62  A    between atoms: _151  and  _152
REMARK   63  A    between atoms: _152  and  _153
REMARK   64  A    between atoms: _153  and  _154
REMARK   65  A    between atoms: _163  and  _165
REMARK   66  A    between atoms: _165  and  _166
REMARK   67  A    between atoms: _165  and  _168
REMARK   68  A    between atoms: _168  and  _169
REMARK   69  A    between atoms: _175  and  _177
REMARK   70  A    between atoms: _177  and  _178
REMARK   71  A    between atoms: _177  and  _180
REMARK   72  A    between atoms: _180  and  _181
REMARK   73  A    between atoms: _185  and  _186
REMARK   74  A    between atoms: _191  and  _193
REMARK   75  A    between atoms: _193  and  _194
REMARK   76  A    between atoms: _193  and  _196
REMARK   77  A    between atoms: _196  and  _197
REMARK   78  A    between atoms: _200  and  _202
REMARK   79  A    between atoms: _202  and  _203
REMARK   80  A    between atoms: _202  and  _205
REMARK   81  A    between atoms: _205  and  _206
REMARK   82  A    between atoms: _206  and  _207
REMARK   83  A    between atoms: _210  and  _212
REMARK   84  A    between atoms: _212  and  _213
REMARK   85  A    between atoms: _212  and  _215
REMARK   86  A    between atoms: _215  and  _216
REMARK   87  A    between atoms: _219  and  _221
REMARK   88  A    between atoms: _221  and  _222
REMARK   89  A    between atoms: _225  and  _227
REMARK   90  A    between atoms: _227  and  _228
REMARK   91  A    between atoms: _227  and  _230
REMARK   92  A    between atoms: _230  and  _231
REMARK   93  A    between atoms: _234  and  _236
REMARK   94  A    between atoms: _236  and  _237
REMARK   95  A    between atoms: _236  and  _239
REMARK   96  A    between atoms: _239  and  _240
REMARK   97  A    between atoms: _243  and  _245
REMARK   98  A    between atoms: _245  and  _246
REMARK   99  A    between atoms: _245  and  _248
REMARK  100  A    between atoms: _248  and  _249
REMARK  101  A    between atoms: _249  and  _250
REMARK  102  A    between atoms: _250  and  _251
REMARK  103  A    between atoms: _260  and  _262
REMARK  104  A    between atoms: _262  and  _263
REMARK  105  A    between atoms: _262  and  _265
REMARK  106  A    between atoms: _265  and  _266
REMARK  107  A    between atoms: _269  and  _271
REMARK  108  A    between atoms: _271  and  _272
REMARK  109  A    between atoms: _271  and  _274
REMARK  110  A    between atoms: _274  and  _275
REMARK  111  A    between atoms: _275  and  _276
REMARK  112  A    between atoms: _278  and  _280
REMARK  113  A    between atoms: _280  and  _281
REMARK  114  A    between atoms: _280  and  _283
REMARK  115  A    between atoms: _283  and  _284
REMARK  116  A    between atoms: _287  and  _289
REMARK  117  A    between atoms: _289  and  _290
REMARK  118  A    between atoms: _289  and  _292
REMARK  119  A    between atoms: _295  and  _297
REMARK  120  A    between atoms: _297  and  _298
REMARK  121  A    between atoms: _301  and  _303
REMARK  122  A    between atoms: _303  and  _304
REMARK  123  A    between atoms: _303  and  _306
REMARK  124  A    between atoms: _306  and  _307
REMARK  125  A    between atoms: _310  and  _312
REMARK  126  A    between atoms: _312  and  _313
REMARK  127  A    between atoms: _312  and  _315
REMARK  128  A    between atoms: _315  and  _316
REMARK  129  A    between atoms: _321  and  _323
REMARK  130  A    between atoms: _323  and  _324
REMARK  131  A    between atoms: _323  and  _326
REMARK  132  A    between atoms: _326  and  _327
REMARK  133  A    between atoms: _330  and  _332
REMARK  134  A    between atoms: _332  and  _333
REMARK  135  A    between atoms: _332  and  _335
REMARK  136  A    between atoms: _335  and  _336
REMARK  137  A    between atoms: _338  and  _340
REMARK  138  A    between atoms: _340  and  _341
REMARK  139  A    between atoms: _340  and  _343
REMARK  140  A    between atoms: _343  and  _344
REMARK  141  A    between atoms: _346  and  _348
REMARK  142  A    between atoms: _348  and  _349
REMARK  143  A    between atoms: _352  and  _354
REMARK  144  A    between atoms: _354  and  _355
REMARK  145  A    between atoms: _354  and  _357
REMARK  146  A    between atoms: _357  and  _358
REMARK  147  A    between atoms: _361  and  _363
REMARK  148  A    between atoms: _363  and  _364
REMARK  149  A    between atoms: _363  and  _366
REMARK  150  A    between atoms: _366  and  _367
REMARK  151  A    between atoms: _367  and  _368
REMARK  152  A    between atoms: _371  and  _373
REMARK  153  A    between atoms: _373  and  _374
REMARK  154  A    between atoms: _373  and  _376
REMARK  155  A    between atoms: _376  and  _377
REMARK  156  A    between atoms: _380  and  _382
REMARK  157  A    between atoms: _382  and  _383
REMARK  158  A    between atoms: _385  and  _387
REMARK  159  A    between atoms: _387  and  _388
REMARK  160  A    between atoms: _387  and  _390
REMARK  161  A    between atoms: _390  and  _391
REMARK  162  A    between atoms: _391  and  _392
REMARK  163  A    between atoms: _395  and  _397
REMARK  164  A    between atoms: _397  and  _398
REMARK  165  A    between atoms: _397  and  _400
REMARK  166  A    between atoms: _400  and  _401
REMARK  167  A    between atoms: _401  and  _402
REMARK  168  A    between atoms: _405  and  _407
REMARK  169  A    between atoms: _407  and  _408
REMARK  170  A    between atoms: _407  and  _410
REMARK  171  A    between atoms: _410  and  _411
REMARK  172  A    between atoms: _411  and  _412
REMARK  173  A    between atoms: _417  and  _419
REMARK  174  A    between atoms: _419  and  _420
REMARK  175  A    between atoms: _419  and  _422
REMARK  176  A    between atoms: _422  and  _423
REMARK  177  A    between atoms: _423  and  _424
REMARK  178  A    between atoms: _429  and  _431
REMARK  179  A    between atoms: _431  and  _432
REMARK  180  A    between atoms: _431  and  _434
REMARK  181  A    between atoms: _434  and  _435
REMARK  182  A    between atoms: _435  and  _436
REMARK  183  A    between atoms: _436  and  _437
REMARK  184  A    between atoms: _446  and  _448
REMARK  185  A    between atoms: _448  and  _449
REMARK  186  A    between atoms: _448  and  _451
REMARK  187  A    between atoms: _451  and  _452
REMARK  188  A    between atoms: _457  and  _458
REMARK  189  A    between atoms: _460  and  _462
REMARK  190  A    between atoms: _462  and  _463
REMARK  191  A    between atoms: _462  and  _465
REMARK  192  A    between atoms: _465  and  _466
REMARK  193  A    between atoms: _466  and  _467
REMARK  194  A    between atoms: _467  and  _468
REMARK  195  A    between atoms: _468  and  _469
REMARK  196  A    between atoms: _473  and  _475
REMARK  197  A    between atoms: _475  and  _476
REMARK  198  A    between atoms: _475  and  _478
REMARK  199  A    between atoms: _478  and  _479
REMARK  200  A    between atoms: _482  and  _484
REMARK  201  A    between atoms: _484  and  _485
REMARK  202  A    between atoms: _487  and  _489
REMARK  203  A    between atoms: _489  and  _490
REMARK  204  A    between atoms: _489  and  _492
REMARK  205  A    between atoms: _492  and  _493
REMARK  206  A    between atoms: _496  and  _498
REMARK  207  A    between atoms: _498  and  _499
REMARK  208  A    between atoms: _498  and  _501
REMARK  209  A    between atoms: _501  and  _502
REMARK  210  A    between atoms: _502  and  _503
REMARK  211  A    between atoms: _503  and  _504
REMARK  212  A    between atoms: _513  and  _515
REMARK  213  A    between atoms: _515  and  _516
REMARK  214  A    between atoms: _515  and  _518
REMARK  215  A    between atoms: _518  and  _519
REMARK  216  A    between atoms: _519  and  _520
REMARK  217  A    between atoms: _523  and  _525
REMARK  218  A    between atoms: _525  and  _526
REMARK  219  A    between atoms: _525  and  _528
REMARK  220  A    between atoms: _528  and  _529
REMARK  221  A    between atoms: _529  and  _530
REMARK  222  A    between atoms: _530  and  _531
REMARK  223  A    between atoms: _540  and  _542
REMARK  224  A    between atoms: _542  and  _543
REMARK  225  A    between atoms: _542  and  _545
REMARK  226  A    between atoms: _548  and  _550
REMARK  227  A    between atoms: _550  and  _551
REMARK  228  A    between atoms: _550  and  _553
REMARK  229  A    between atoms: _553  and  _554
REMARK  230  A    between atoms: _554  and  _555
REMARK  231  A    between atoms: _558  and  _560
REMARK  232  A    between atoms: _560  and  _561
REMARK  233  A    between atoms: _560  and  _563
REMARK  234  A    between atoms: _563  and  _564
REMARK  235  A    between atoms: _567  and  _569
REMARK  236  A    between atoms: _569  and  _570
REMARK  237  A    between atoms: _569  and  _572
REMARK  238  A    between atoms: _572  and  _573
REMARK  239  A    between atoms: _573  and  _574
REMARK  240  A    between atoms: _577  and  _579
REMARK  241  A    between atoms: _579  and  _580
REMARK  242  A    between atoms: _579  and  _582
REMARK  243  A    between atoms: _582  and  _583
REMARK  244  A    between atoms: _583  and  _584
REMARK  245  A    between atoms: _589  and  _591
REMARK  246  A    between atoms: _591  and  _592
REMARK  247  A    between atoms: _594  and  _596
REMARK  248  A    between atoms: _596  and  _597
REMARK  249  A    between atoms: _596  and  _599
REMARK  250  A    between atoms: _599  and  _600
REMARK  251  A    between atoms: _600  and  _601
REMARK  252  A    between atoms: _606  and  _608
REMARK  253  A    between atoms: _608  and  _609
REMARK  254  A    between atoms: _608  and  _611
REMARK  255  A    between atoms: _611  and  _612
REMARK  256  A    between atoms: _615  and  _617
REMARK  257  A    between atoms: _617  and  _618
REMARK  258  A    between atoms: _617  and  _620
REMARK  259  A    between atoms: _620  and  _621
REMARK  260  A    between atoms: _627  and  _629
REMARK  261  A    between atoms: _629  and  _630
REMARK  262  A    between atoms: _632  and  _634
REMARK  263  A    between atoms: _634  and  _635
REMARK  264  A    between atoms: _634  and  _637
REMARK  265  A    between atoms: _637  and  _638
REMARK  266  A    between atoms: _638  and  _639
REMARK  267  A    between atoms: _643  and  _644
REMARK                            x       y       z     vdW  Elec       q    Type
REMARK                         _______ _______ _______ _____ _____    ______ ____
ROOT
ATOM      1  C   THR A   1      42.437  32.290  13.485  0.00  0.00    +0.241 C 
ATOM      2  N   ALA A   2      43.353  31.579  14.137  0.00  0.00    -0.298 N 
ATOM      3  H   ALA A   2      44.336  31.568  13.798  0.00  0.00    +0.150 HD
ATOM      4  O   THR A   1      41.261  32.319  13.831  0.00  0.00    -0.274 OA
ENDROOT
BRANCH   2   5
ATOM      5  CA  ALA A   2      42.986  30.815  15.325  0.00  0.00    +0.137 C 
ATOM      6  CB  ALA A   2      44.092  29.867  15.714  0.00  0.00    +0.030 C 
BRANCH   5   7
ATOM      7  C   ALA A   2      42.612  31.722  16.498  0.00  0.00    +0.227 C 
ATOM      8  O   ALA A   2      41.723  31.396  17.295  0.00  0.00    -0.286 OA
ENDBRANCH   5   7
ENDBRANCH   2   5
BRANCH   1   9
ATOM      9  CA  THR A   1      42.908  33.130  12.300  0.00  0.00    +0.172 C 
BRANCH   9  10
ATOM     10  N   THR A   1      44.293  33.606  12.452  0.00  0.00    -0.236 NA
ATOM     11  H   THR A   1      45.003  33.404  11.720  0.00  0.00    +0.142 HD
ENDBRANCH   9  10
BRANCH   9  12
ATOM     12  CB  THR A   1      42.651  32.392  10.977  0.00  0.00    +0.135 C 
ATOM     13  CG2 THR A   1      42.630  33.378   9.819  0.00  0.00    +0.034 C 
BRANCH  12  14
ATOM     14  OG1 THR A   1      43.700  31.446  10.755  0.00  0.00    -0.383 OA
ATOM     15  HG1 THR A   1      44.567  31.921  10.708  0.00  0.00    +0.210 HD
ENDBRANCH  12  14
ENDBRANCH   9  12
ENDBRANCH   1   9
TORSDOF 6
REMARK  Name = ../refined-set-2016/3pju/3pju_pocket.pdb
REMARK  267 active torsions:
REMARK  status: ('A' for Active; 'I' for Inactive)
REMARK    1  A    between atoms: _1  and  _3
REMARK    2  A    between atoms: _3  and  _4
REMARK    3  A    between atoms: _3  and  _6
REMARK    4  A    between atoms: _6  and  _7
REMARK    5  A    between atoms: _13  and  _15
REMARK    6  A    between atoms: _15  and  _16
REMARK    7  A    between atoms: _15  and  _18
REMARK    8  A    between atoms: _18  and  _19
REMARK    9  A    between atoms: _19  and  _20
REMARK   10  A    between atoms: _23  and  _25
REMARK   11  A    between atoms: _25  and  _26
REMARK   12  A    between atoms: _25  and  _28
REMARK   13  A    between atoms: _28  and  _29
REMARK   14  A    between atoms: _32  and  _34
REMARK   15  A    between atoms: _34  and  _35
REMARK   16  A    between atoms: _34  and  _37
REMARK   17  A    between atoms: _37  and  _38
REMARK   18  A    between atoms: _44  and  _46
REMARK   19  A    between atoms: _46  and  _47
REMARK   20  A    between atoms: _46  and  _49
REMARK   21  A    between atoms: _49  and  _50
REMARK   22  A    between atoms: _50  and  _51
REMARK   23  A    between atoms: _56  and  _58
REMARK   24  A    between atoms: _58  and  _59
REMARK   25  A    between atoms: _58  and  _61
REMARK   26  A    between atoms: _64  and  _66
REMARK   27  A    between atoms: _66  and  _67
REMARK   28  A    between atoms: _66  and  _69
REMARK   29  A    between atoms: _69  and  _70
REMARK   30  A    between atoms: _70  and  _71
REMARK   31  A    between atoms: _71  and  _72
REMARK   32  A    between atoms: _72  and  _73
REMARK   33  A    between atoms: _77  and  _79
REMARK   34  A    between atoms: _79  and  _80
REMARK   35  A    between atoms: _79  and  _82
REMARK   36  A    between atoms: _85  and  _87
REMARK   37  A    between atoms: _87  and  _88
REMARK   38  A    between atoms: _87  and  _90
REMARK   39  A    between atoms: _90  and  _91
REMARK   40  A    between atoms: _94  and  _96
REMARK   41  A    between atoms: _96  and  _97
REMARK   42  A    between atoms: _96  and  _99
REMARK   43  A    between atoms: _99  and  _100
REMARK   44  A    between atoms: _102  and  _104
REMARK   45  A    between atoms: _104  and  _105
REMARK   46  A    between atoms: _104  and  _107
REMARK   47  A    between atoms: _107  and  _108
REMARK   48  A    between atoms: _108  and  _109
REMARK   49  A    between atoms: _109  and  _110
REMARK   50  A    between atoms: _119  and  _121
REMARK   51  A    between atoms: _121  and  _122
REMARK   52  A    between atoms: _121  and  _124
REMARK   53  A    between atoms: _124  and  _125
REMARK   54  A    between atoms: _129  and  _130
REMARK   55  A    between atoms: _135  and  _137
REMARK   56  A    between atoms: _137  and  _138
REMARK   57  A    between atoms: _141  and  _143
REMARK   58  A    between atoms: _143  and  _144
REMARK   59  A    between atoms: _146  and  _148
REMARK   60  A    between atoms: _148  and  _149
REMARK   61  A    between atoms: _148  and  _151
REMARK   62  A    between atoms: _151  and  _152
REMARK   63  A    between atoms: _152  and  _153
REMARK   64  A    between atoms: _153  and  _154
REMARK   65  A    between atoms: _163  and  _165
REMARK   66  A    between atoms: _165  and  _166
REMARK   67  A    between atoms: _165  and  _168
REMARK   68  A    between atoms: _168  and  _169
REMARK   69  A    between atoms: _175  and  _177
REMARK   70  A    between atoms: _177  and  _178
REMARK   71  A    between atoms: _177  and  _180
REMARK   72  A    between atoms: _180  and  _181
REMARK   73  A    between atoms: _185  and  _186
REMARK   74  A    between atoms: _191  and  _193
REMARK   75  A    between atoms: _193  and  _194
REMARK   76  A    between atoms: _193  and  _196
REMARK   77  A    between atoms: _196  and  _197
REMARK   78  A    between atoms: _200  and  _202
REMARK   79  A    between atoms: _202  and  _203
REMARK   80  A    between atoms: _202  and  _205
REMARK   81  A    between atoms: _205  and  _206
REMARK   82  A    between atoms: _206  and  _207
REMARK   83  A    between atoms: _210  and  _212
REMARK   84  A    between atoms: _212  and  _213
REMARK   85  A    between atoms: _212  and  _215
REMARK   86  A    between atoms: _215  and  _216
REMARK   87  A    between atoms: _219  and  _221
REMARK   88  A    between atoms: _221  and  _222
REMARK   89  A    between atoms: _225  and  _227
REMARK   90  A    between atoms: _227  and  _228
REMARK   91  A    between atoms: _227  and  _230
REMARK   92  A    between atoms: _230  and  _231
REMARK   93  A    between atoms: _234  and  _236
REMARK   94  A    between atoms: _236  and  _237
REMARK   95  A    between atoms: _236  and  _239
REMARK   96  A    between atoms: _239  and  _240
REMARK   97  A    between atoms: _243  and  _245
REMARK   98  A    between atoms: _245  and  _246
REMARK   99  A    between atoms: _245  and  _248
REMARK  100  A    between atoms: _248  and  _249
REMARK  101  A    between atoms: _249  and  _250
REMARK  102  A    between atoms: _250  and  _251
REMARK  103  A    between atoms: _260  and  _262
REMARK  104  A    between atoms: _262  and  _263
REMARK  105  A    between atoms: _262  and  _265
REMARK  106  A    between atoms: _265  and  _266
REMARK  107  A    between atoms: _269  and  _271
REMARK  108  A    between atoms: _271  and  _272
REMARK  109  A    between atoms: _271  and  _274
REMARK  110  A    between atoms: _274  and  _275
REMARK  111  A    between atoms: _275  and  _276
REMARK  112  A    between atoms: _278  and  _280
REMARK  113  A    between atoms: _280  and  _281
REMARK  114  A    between atoms: _280  and  _283
REMARK  115  A    between atoms: _283  and  _284
REMARK  116  A    between atoms: _287  and  _289
REMARK  117  A    between atoms: _289  and  _290
REMARK  118  A    between atoms: _289  and  _292
REMARK  119  A    between atoms: _295  and  _297
REMARK  120  A    between atoms: _297  and  _298
REMARK  121  A    between atoms: _301  and  _303
REMARK  122  A    between atoms: _303  and  _304
REMARK  123  A    between atoms: _303  and  _306
REMARK  124  A    between atoms: _306  and  _307
REMARK  125  A    between atoms: _310  and  _312
REMARK  126  A    between atoms: _312  and  _313
REMARK  127  A    between atoms: _312  and  _315
REMARK  128  A    between atoms: _315  and  _316
REMARK  129  A    between atoms: _321  and  _323
REMARK  130  A    between atoms: _323  and  _324
REMARK  131  A    between atoms: _323  and  _326
REMARK  132  A    between atoms: _326  and  _327
REMARK  133  A    between atoms: _330  and  _332
REMARK  134  A    between atoms: _332  and  _333
REMARK  135  A    between atoms: _332  and  _335
REMARK  136  A    between atoms: _335  and  _336
REMARK  137  A    between atoms: _338  and  _340
REMARK  138  A    between atoms: _340  and  _341
REMARK  139  A    between atoms: _340  and  _343
REMARK  140  A    between atoms: _343  and  _344
REMARK  141  A    between atoms: _346  and  _348
REMARK  142  A    between atoms: _348  and  _349
REMARK  143  A    between atoms: _352  and  _354
REMARK  144  A    between atoms: _354  and  _355
REMARK  145  A    between atoms: _354  and  _357
REMARK  146  A    between atoms: _357  and  _358
REMARK  147  A    between atoms: _361  and  _363
REMARK  148  A    between atoms: _363  and  _364
REMARK  149  A    between atoms: _363  and  _366
REMARK  150  A    between atoms: _366  and  _367
REMARK  151  A    between atoms: _367  and  _368
REMARK  152  A    between atoms: _371  and  _373
REMARK  153  A    between atoms: _373  and  _374
REMARK  154  A    between atoms: _373  and  _376
REMARK  155  A    between atoms: _376  and  _377
REMARK  156  A    between atoms: _380  and  _382
REMARK  157  A    between atoms: _382  and  _383
REMARK  158  A    between atoms: _385  and  _387
REMARK  159  A    between atoms: _387  and  _388
REMARK  160  A    between atoms: _387  and  _390
REMARK  161  A    between atoms: _390  and  _391
REMARK  162  A    between atoms: _391  and  _392
REMARK  163  A    between atoms: _395  and  _397
REMARK  164  A    between atoms: _397  and  _398
REMARK  165  A    between atoms: _397  and  _400
REMARK  166  A    between atoms: _400  and  _401
REMARK  167  A    between atoms: _401  and  _402
REMARK  168  A    between atoms: _405  and  _407
REMARK  169  A    between atoms: _407  and  _408
REMARK  170  A    between atoms: _407  and  _410
REMARK  171  A    between atoms: _410  and  _411
REMARK  172  A    between atoms: _411  and  _412
REMARK  173  A    between atoms: _417  and  _419
REMARK  174  A    between atoms: _419  and  _420
REMARK  175  A    between atoms: _419  and  _422
REMARK  176  A    between atoms: _422  and  _423
REMARK  177  A    between atoms: _423  and  _424
REMARK  178  A    between atoms: _429  and  _431
REMARK  179  A    between atoms: _431  and  _432
REMARK  180  A    between atoms: _431  and  _434
REMARK  181  A    between atoms: _434  and  _435
REMARK  182  A    between atoms: _435  and  _436
REMARK  183  A    between atoms: _436  and  _437
REMARK  184  A    between atoms: _446  and  _448
REMARK  185  A    between atoms: _448  and  _449
REMARK  186  A    between atoms: _448  and  _451
REMARK  187  A    between atoms: _451  and  _452
REMARK  188  A    between atoms: _457  and  _458
REMARK  189  A    between atoms: _460  and  _462
REMARK  190  A    between atoms: _462  and  _463
REMARK  191  A    between atoms: _462  and  _465
REMARK  192  A    between atoms: _465  and  _466
REMARK  193  A    between atoms: _466  and  _467
REMARK  194  A    between atoms: _467  and  _468
REMARK  195  A    between atoms: _468  and  _469
REMARK  196  A    between atoms: _473  and  _475
REMARK  197  A    between atoms: _475  and  _476
REMARK  198  A    between atoms: _475  and  _478
REMARK  199  A    between atoms: _478  and  _479
REMARK  200  A    between atoms: _482  and  _484
REMARK  201  A    between atoms: _484  and  _485
REMARK  202  A    between atoms: _487  and  _489
REMARK  203  A    between atoms: _489  and  _490
REMARK  204  A    between atoms: _489  and  _492
REMARK  205  A    between atoms: _492  and  _493
REMARK  206  A    between atoms: _496  and  _498
REMARK  207  A    between atoms: _498  and  _499
REMARK  208  A    between atoms: _498  and  _501
REMARK  209  A    between atoms: _501  and  _502
REMARK  210  A    between atoms: _502  and  _503
REMARK  211  A    between atoms: _503  and  _504
REMARK  212  A    between atoms: _513  and  _515
REMARK  213  A    between atoms: _515  and  _516
REMARK  214  A    between atoms: _515  and  _518
REMARK  215  A    between atoms: _518  and  _519
REMARK  216  A    between atoms: _519  and  _520
REMARK  217  A    between atoms: _523  and  _525
REMARK  218  A    between atoms: _525  and  _526
REMARK  219  A    between atoms: _525  and  _528
REMARK  220  A    between atoms: _528  and  _529
REMARK  221  A    between atoms: _529  and  _530
REMARK  222  A    between atoms: _530  and  _531
REMARK  223  A    between atoms: _540  and  _542
REMARK  224  A    between atoms: _542  and  _543
REMARK  225  A    between atoms: _542  and  _545
REMARK  226  A    between atoms: _548  and  _550
REMARK  227  A    between atoms: _550  and  _551
REMARK  228  A    between atoms: _550  and  _553
REMARK  229  A    between atoms: _553  and  _554
REMARK  230  A    between atoms: _554  and  _555
REMARK  231  A    between atoms: _558  and  _560
REMARK  232  A    between atoms: _560  and  _561
REMARK  233  A    between atoms: _560  and  _563
REMARK  234  A    between atoms: _563  and  _564
REMARK  235  A    between atoms: _567  and  _569
REMARK  236  A    between atoms: _569  and  _570
REMARK  237  A    between atoms: _569  and  _572
REMARK  238  A    between atoms: _572  and  _573
REMARK  239  A    between atoms: _573  and  _574
REMARK  240  A    between atoms: _577  and  _579
REMARK  241  A    between atoms: _579  and  _580
REMARK  242  A    between atoms: _579  and  _582
REMARK  243  A    between atoms: _582  and  _583
REMARK  244  A    between atoms: _583  and  _584
REMARK  245  A    between atoms: _589  and  _591
REMARK  246  A    between atoms: _591  and  _592
REMARK  247  A    between atoms: _594  and  _596
REMARK  248  A    between atoms: _596  and  _597
REMARK  249  A    between atoms: _596  and  _599
REMARK  250  A    between atoms: _599  and  _600
REMARK  251  A    between atoms: _600  and  _601
REMARK  252  A    between atoms: _606  and  _608
REMARK  253  A    between atoms: _608  and  _609
REMARK  254  A    between atoms: _608  and  _611
REMARK  255  A    between atoms: _611  and  _612
REMARK  256  A    between atoms: _615  and  _617
REMARK  257  A    between atoms: _617  and  _618
REMARK  258  A    between atoms: _617  and  _620
REMARK  259  A    between atoms: _620  and  _621
REMARK  260  A    between atoms: _627  and  _629
REMARK  261  A    between atoms: _629  and  _630
REMARK  262  A    between atoms: _632  and  _634
REMARK  263  A    between atoms: _634  and  _635
REMARK  264  A    between atoms: _634  and  _637
REMARK  265  A    between atoms: _637  and  _638
REMARK  266  A    between atoms: _638  and  _639
REMARK  267  A    between atoms: _643  and  _644
REMARK                            x       y       z     vdW  Elec       q    Type
REMARK                         _______ _______ _______ _____ _____    ______ ____
ROOT
ATOM      1  CA  ARG A   3      38.702  31.627  19.957  0.00  0.00    +0.149 C 
ENDROOT
BRANCH   1   3
ATOM      2  C   ASP A   2      37.701  31.679  17.743  0.00  0.00    +0.241 C 
ATOM      3  N   ARG A   3      38.787  31.727  18.507  0.00  0.00    -0.297 N 
ATOM      4  H   ARG A   3      39.719  31.839  18.059  0.00  0.00    +0.150 HD
ATOM      5  O   ASP A   2      36.556  31.544  18.193  0.00  0.00    -0.273 OA
BRANCH   2   6
ATOM      6  CA  ASP A   2      37.942  31.778  16.249  0.00  0.00    +0.160 C 
BRANCH   6   9
ATOM      7  C   LEU A   1      38.750  34.088  16.212  0.00  0.00    +0.238 C 
ATOM      8  O   LEU A   1      37.715  34.506  16.734  0.00  0.00    -0.274 OA
ATOM      9  N   ASP A   2      38.967  32.790  15.965  0.00  0.00    -0.297 N 
ATOM     10  H   ASP A   2      39.879  32.493  15.564  0.00  0.00    +0.150 HD
BRANCH   7  11
ATOM     11  CA  LEU A   1      39.851  35.079  15.818  0.00  0.00    +0.145 C 
BRANCH  11  12
ATOM     12  N   LEU A   1      41.190  34.595  16.143  0.00  0.00    -0.238 NA
ATOM     13  H   LEU A   1      41.879  34.431  15.381  0.00  0.00    +0.142 HD
ENDBRANCH  11  12
BRANCH  11  14
ATOM     14  CB  LEU A   1      39.736  35.438  14.334  0.00  0.00    +0.026 C 
BRANCH  14  15
ATOM     15  CG  LEU A   1      38.352  35.944  13.930  0.00  0.00    +0.002 C 
ATOM     16  CD2 LEU A   1      38.099  37.303  14.564  0.00  0.00    +0.000 C 
ATOM     17  CD1 LEU A   1      38.211  36.013  12.413  0.00  0.00    +0.000 C 
ENDBRANCH  14  15
ENDBRANCH  11  14
ENDBRANCH   7  11
ENDBRANCH   6   9
BRANCH   6  18
ATOM     18  CB  ASP A   2      38.335  30.390  15.732  0.00  0.00    +0.143 C 
BRANCH  18  19
ATOM     19  CG  ASP A   2      38.370  30.305  14.227  0.00  0.00    +0.367 C 
ATOM     20  OD2 ASP A   2      39.080  29.420  13.716  0.00  0.00    -0.246 OA
ATOM     21  OD1 ASP A   2      37.694  31.100  13.552  0.00  0.00    -0.246 OA
ENDBRANCH  18  19
ENDBRANCH   6  18
ENDBRANCH   2   6
ENDBRANCH   1   3
BRANCH   1  22
ATOM     22  C   ARG A   3      37.838  32.774  20.471  0.00  0.00    +0.241 C 
ATOM     23  O   ARG A   3      36.928  32.584  21.288  0.00  0.00    -0.273 OA
ATOM     24  N   LEU A   4      38.113  33.963  19.942  0.00  0.00    -0.297 N 
ATOM     25  H   LEU A   4      38.871  34.025  19.232  0.00  0.00    +0.150 HD
BRANCH  24  26
ATOM     26  CA  LEU A   4      37.403  35.188  20.309  0.00  0.00    +0.149 C 
BRANCH  26  27
ATOM     27  C   LEU A   4      35.938  35.156  19.842  0.00  0.00    +0.241 C 
ATOM     28  O   LEU A   4      35.001  35.374  20.631  0.00  0.00    -0.273 OA
ATOM     29  N   MET A   5      35.745  34.886  18.555  0.00  0.00    -0.297 N 
ATOM     30  H   MET A   5      36.568  34.772  17.930  0.00  0.00    +0.150 HD
BRANCH  29  31
ATOM     31  CA  MET A   5      34.404  34.746  18.001  0.00  0.00    +0.149 C 
BRANCH  31  32
ATOM     32  C   MET A   5      33.568  33.705  18.748  0.00  0.00    +0.241 C 
ATOM     33  O   MET A   5      32.413  33.960  19.089  0.00  0.00    -0.273 OA
ATOM     34  N   LEU A   6      34.156  32.543  19.025  0.00  0.00    -0.298 N 
ATOM     35  H   LEU A   6      35.163  32.413  18.802  0.00  0.00    +0.150 HD
BRANCH  34  36
ATOM     36  CA  LEU A   6      33.407  31.445  19.639  0.00  0.00    +0.137 C 
BRANCH  36  37
ATOM     37  C   LEU A   6      32.961  31.784  21.049  0.00  0.00    +0.227 C 
ATOM     38  O   LEU A   6      31.830  31.485  21.437  0.00  0.00    -0.286 OA
ENDBRANCH  36  37
BRANCH  36  39
ATOM     39  CB  LEU A   6      34.218  30.144  19.647  0.00  0.00    +0.028 C 
BRANCH  39  40
ATOM     40  CG  LEU A   6      33.590  28.978  20.423  0.00  0.00    +0.002 C 
ATOM     41  CD2 LEU A   6      34.558  27.804  20.522  0.00  0.00    +0.000 C 
ATOM     42  CD1 LEU A   6      32.266  28.521  19.812  0.00  0.00    +0.000 C 
ENDBRANCH  39  40
ENDBRANCH  36  39
ENDBRANCH  34  36
ENDBRANCH  31  32
BRANCH  31  43
ATOM     43  CB  MET A   5      34.478  34.417  16.512  0.00  0.00    +0.041 C 
BRANCH  43  44
ATOM     44  CG  MET A   5      34.937  35.588  15.668  0.00  0.00    +0.060 C 
BRANCH  44  45
ATOM     45  SD  MET A   5      33.855  37.030  15.883  0.00  0.00    -0.139 S 
ATOM     46  CE  MET A   5      32.287  36.377  15.332  0.00  0.00    +0.069 C 
ENDBRANCH  44  45
ENDBRANCH  43  44
ENDBRANCH  31  43
ENDBRANCH  29  31
ENDBRANCH  26  27
BRANCH  26  47
ATOM     47  CB  LEU A   4      38.150  36.390  19.716  0.00  0.00    +0.029 C 
BRANCH  47  48
ATOM     48  CG  LEU A   4      37.744  37.818  20.082  0.00  0.00    +0.002 C 
ATOM     49  CD2 LEU A   4      38.816  38.785  19.587  0.00  0.00    +0.000 C 
ATOM     50  CD1 LEU A   4      36.389  38.205  19.522  0.00  0.00    +0.000 C 
ENDBRANCH  47  48
ENDBRANCH  26  47
ENDBRANCH  24  26
ENDBRANCH   1  22
BRANCH   1  51
ATOM     51  CB  ARG A   3      40.110  31.686  20.553  0.00  0.00    +0.033 C 
BRANCH  51  52
ATOM     52  CG  ARG A   3      40.237  31.243  22.004  0.00  0.00    +0.045 C 
BRANCH  52  53
ATOM     53  CD  ARG A   3      41.724  31.049  22.373  0.00  0.00    +0.174 C 
BRANCH  53  54
ATOM     54  NE  ARG A   3      42.320  29.879  21.711  0.00  0.00    -0.265 N 
ATOM     55  HE  ARG A   3      41.935  28.946  21.960  0.00  0.00    +0.259 HD
ATOM     56  CZ  ARG A   3      43.315  29.910  20.816  0.00  0.00    +0.342 C 
ATOM     57  NH2 ARG A   3      43.882  31.058  20.435  0.00  0.00    -0.292 N 
ATOM     58 HH21 ARG A   3      43.552  31.959  20.836  0.00  0.00    +0.255 HD
ATOM     59 HH22 ARG A   3      44.653  31.051  19.738  0.00  0.00    +0.255 HD
ATOM     60  NH1 ARG A   3      43.756  28.768  20.303  0.00  0.00    -0.292 N 
ATOM     61 HH11 ARG A   3      43.329  27.866  20.598  0.00  0.00    +0.255 HD
ATOM     62 HH12 ARG A   3      44.528  28.775  19.607  0.00  0.00    +0.255 HD
ENDBRANCH  53  54
ENDBRANCH  52  53
ENDBRANCH  51  52
ENDBRANCH   1  51
TORSDOF 27
REMARK  Name = ../refined-set-2016/3pju/3pju_pocket.pdb
REMARK  267 active torsions:
REMARK  status: ('A' for Active; 'I' for Inactive)
REMARK    1  A    between atoms: _1  and  _3
REMARK    2  A    between atoms: _3  and  _4
REMARK    3  A    between atoms: _3  and  _6
REMARK    4  A    between atoms: _6  and  _7
REMARK    5  A    between atoms: _13  and  _15
REMARK    6  A    between atoms: _15  and  _16
REMARK    7  A    between atoms: _15  and  _18
REMARK    8  A    between atoms: _18  and  _19
REMARK    9  A    between atoms: _19  and  _20
REMARK   10  A    between atoms: _23  and  _25
REMARK   11  A    between atoms: _25  and  _26
REMARK   12  A    between atoms: _25  and  _28
REMARK   13  A    between atoms: _28  and  _29
REMARK   14  A    between atoms: _32  and  _34
REMARK   15  A    between atoms: _34  and  _35
REMARK   16  A    between atoms: _34  and  _37
REMARK   17  A    between atoms: _37  and  _38
REMARK   18  A    between atoms: _44  and  _46
REMARK   19  A    between atoms: _46  and  _47
REMARK   20  A    between atoms: _46  and  _49
REMARK   21  A    between atoms: _49  and  _50
REMARK   22  A    between atoms: _50  and  _51
REMARK   23  A    between atoms: _56  and  _58
REMARK   24  A    between atoms: _58  and  _59
REMARK   25  A    between atoms: _58  and  _61
REMARK   26  A    between atoms: _64  and  _66
REMARK   27  A    between atoms: _66  and  _67
REMARK   28  A    between atoms: _66  and  _69
REMARK   29  A    between atoms: _69  and  _70
REMARK   30  A    between atoms: _70  and  _71
REMARK   31  A    between atoms: _71  and  _72
REMARK   32  A    between atoms: _72  and  _73
REMARK   33  A    between atoms: _77  and  _79
REMARK   34  A    between atoms: _79  and  _80
REMARK   35  A    between atoms: _79  and  _82
REMARK   36  A    between atoms: _85  and  _87
REMARK   37  A    between atoms: _87  and  _88
REMARK   38  A    between atoms: _87  and  _90
REMARK   39  A    between atoms: _90  and  _91
REMARK   40  A    between atoms: _94  and  _96
REMARK   41  A    between atoms: _96  and  _97
REMARK   42  A    between atoms: _96  and  _99
REMARK   43  A    between atoms: _99  and  _100
REMARK   44  A    between atoms: _102  and  _104
REMARK   45  A    between atoms: _104  and  _105
REMARK   46  A    between atoms: _104  and  _107
REMARK   47  A    between atoms: _107  and  _108
REMARK   48  A    between atoms: _108  and  _109
REMARK   49  A    between atoms: _109  and  _110
REMARK   50  A    between atoms: _119  and  _121
REMARK   51  A    between atoms: _121  and  _122
REMARK   52  A    between atoms: _121  and  _124
REMARK   53  A    between atoms: _124  and  _125
REMARK   54  A    between atoms: _129  and  _130
REMARK   55  A    between atoms: _135  and  _137
REMARK   56  A    between atoms: _137  and  _138
REMARK   57  A    between atoms: _141  and  _143
REMARK   58  A    between atoms: _143  and  _144
REMARK   59  A    between atoms: _146  and  _148
REMARK   60  A    between atoms: _148  and  _149
REMARK   61  A    between atoms: _148  and  _151
REMARK   62  A    between atoms: _151  and  _152
REMARK   63  A    between atoms: _152  and  _153
REMARK   64  A    between atoms: _153  and  _154
REMARK   65  A    between atoms: _163  and  _165
REMARK   66  A    between atoms: _165  and  _166
REMARK   67  A    between atoms: _165  and  _168
REMARK   68  A    between atoms: _168  and  _169
REMARK   69  A    between atoms: _175  and  _177
REMARK   70  A    between atoms: _177  and  _178
REMARK   71  A    between atoms: _177  and  _180
REMARK   72  A    between atoms: _180  and  _181
REMARK   73  A    between atoms: _185  and  _186
REMARK   74  A    between atoms: _191  and  _193
REMARK   75  A    between atoms: _193  and  _194
REMARK   76  A    between atoms: _193  and  _196
REMARK   77  A    between atoms: _196  and  _197
REMARK   78  A    between atoms: _200  and  _202
REMARK   79  A    between atoms: _202  and  _203
REMARK   80  A    between atoms: _202  and  _205
REMARK   81  A    between atoms: _205  and  _206
REMARK   82  A    between atoms: _206  and  _207
REMARK   83  A    between atoms: _210  and  _212
REMARK   84  A    between atoms: _212  and  _213
REMARK   85  A    between atoms: _212  and  _215
REMARK   86  A    between atoms: _215  and  _216
REMARK   87  A    between atoms: _219  and  _221
REMARK   88  A    between atoms: _221  and  _222
REMARK   89  A    between atoms: _225  and  _227
REMARK   90  A    between atoms: _227  and  _228
REMARK   91  A    between atoms: _227  and  _230
REMARK   92  A    between atoms: _230  and  _231
REMARK   93  A    between atoms: _234  and  _236
REMARK   94  A    between atoms: _236  and  _237
REMARK   95  A    between atoms: _236  and  _239
REMARK   96  A    between atoms: _239  and  _240
REMARK   97  A    between atoms: _243  and  _245
REMARK   98  A    between atoms: _245  and  _246
REMARK   99  A    between atoms: _245  and  _248
REMARK  100  A    between atoms: _248  and  _249
REMARK  101  A    between atoms: _249  and  _250
REMARK  102  A    between atoms: _250  and  _251
REMARK  103  A    between atoms: _260  and  _262
REMARK  104  A    between atoms: _262  and  _263
REMARK  105  A    between atoms: _262  and  _265
REMARK  106  A    between atoms: _265  and  _266
REMARK  107  A    between atoms: _269  and  _271
REMARK  108  A    between atoms: _271  and  _272
REMARK  109  A    between atoms: _271  and  _274
REMARK  110  A    between atoms: _274  and  _275
REMARK  111  A    between atoms: _275  and  _276
REMARK  112  A    between atoms: _278  and  _280
REMARK  113  A    between atoms: _280  and  _281
REMARK  114  A    between atoms: _280  and  _283
REMARK  115  A    between atoms: _283  and  _284
REMARK  116  A    between atoms: _287  and  _289
REMARK  117  A    between atoms: _289  and  _290
REMARK  118  A    between atoms: _289  and  _292
REMARK  119  A    between atoms: _295  and  _297
REMARK  120  A    between atoms: _297  and  _298
REMARK  121  A    between atoms: _301  and  _303
REMARK  122  A    between atoms: _303  and  _304
REMARK  123  A    between atoms: _303  and  _306
REMARK  124  A    between atoms: _306  and  _307
REMARK  125  A    between atoms: _310  and  _312
REMARK  126  A    between atoms: _312  and  _313
REMARK  127  A    between atoms: _312  and  _315
REMARK  128  A    between atoms: _315  and  _316
REMARK  129  A    between atoms: _321  and  _323
REMARK  130  A    between atoms: _323  and  _324
REMARK  131  A    between atoms: _323  and  _326
REMARK  132  A    between atoms: _326  and  _327
REMARK  133  A    between atoms: _330  and  _332
REMARK  134  A    between atoms: _332  and  _333
REMARK  135  A    between atoms: _332  and  _335
REMARK  136  A    between atoms: _335  and  _336
REMARK  137  A    between atoms: _338  and  _340
REMARK  138  A    between atoms: _340  and  _341
REMARK  139  A    between atoms: _340  and  _343
REMARK  140  A    between atoms: _343  and  _344
REMARK  141  A    between atoms: _346  and  _348
REMARK  142  A    between atoms: _348  and  _349
REMARK  143  A    between atoms: _352  and  _354
REMARK  144  A    between atoms: _354  and  _355
REMARK  145  A    between atoms: _354  and  _357
REMARK  146  A    between atoms: _357  and  _358
REMARK  147  A    between atoms: _361  and  _363
REMARK  148  A    between atoms: _363  and  _364
REMARK  149  A    between atoms: _363  and  _366
REMARK  150  A    between atoms: _366  and  _367
REMARK  151  A    between atoms: _367  and  _368
REMARK  152  A    between atoms: _371  and  _373
REMARK  153  A    between atoms: _373  and  _374
REMARK  154  A    between atoms: _373  and  _376
REMARK  155  A    between atoms: _376  and  _377
REMARK  156  A    between atoms: _380  and  _382
REMARK  157  A    between atoms: _382  and  _383
REMARK  158  A    between atoms: _385  and  _387
REMARK  159  A    between atoms: _387  and  _388
REMARK  160  A    between atoms: _387  and  _390
REMARK  161  A    between atoms: _390  and  _391
REMARK  162  A    between atoms: _391  and  _392
REMARK  163  A    between atoms: _395  and  _397
REMARK  164  A    between atoms: _397  and  _398
REMARK  165  A    between atoms: _397  and  _400
REMARK  166  A    between atoms: _400  and  _401
REMARK  167  A    between atoms: _401  and  _402
REMARK  168  A    between atoms: _405  and  _407
REMARK  169  A    between atoms: _407  and  _408
REMARK  170  A    between atoms: _407  and  _410
REMARK  171  A    between atoms: _410  and  _411
REMARK  172  A    between atoms: _411  and  _412
REMARK  173  A    between atoms: _417  and  _419
REMARK  174  A    between atoms: _419  and  _420
REMARK  175  A    between atoms: _419  and  _422
REMARK  176  A    between atoms: _422  and  _423
REMARK  177  A    between atoms: _423  and  _424
REMARK  178  A    between atoms: _429  and  _431
REMARK  179  A    between atoms: _431  and  _432
REMARK  180  A    between atoms: _431  and  _434
REMARK  181  A    between atoms: _434  and  _435
REMARK  182  A    between atoms: _435  and  _436
REMARK  183  A    between atoms: _436  and  _437
REMARK  184  A    between atoms: _446  and  _448
REMARK  185  A    between atoms: _448  and  _449
REMARK  186  A    between atoms: _448  and  _451
REMARK  187  A    between atoms: _451  and  _452
REMARK  188  A    between atoms: _457  and  _458
REMARK  189  A    between atoms: _460  and  _462
REMARK  190  A    between atoms: _462  and  _463
REMARK  191  A    between atoms: _462  and  _465
REMARK  192  A    between atoms: _465  and  _466
REMARK  193  A    between atoms: _466  and  _467
REMARK  194  A    between atoms: _467  and  _468
REMARK  195  A    between atoms: _468  and  _469
REMARK  196  A    between atoms: _473  and  _475
REMARK  197  A    between atoms: _475  and  _476
REMARK  198  A    between atoms: _475  and  _478
REMARK  199  A    between atoms: _478  and  _479
REMARK  200  A    between atoms: _482  and  _484
REMARK  201  A    between atoms: _484  and  _485
REMARK  202  A    between atoms: _487  and  _489
REMARK  203  A    between atoms: _489  and  _490
REMARK  204  A    between atoms: _489  and  _492
REMARK  205  A    between atoms: _492  and  _493
REMARK  206  A    between atoms: _496  and  _498
REMARK  207  A    between atoms: _498  and  _499
REMARK  208  A    between atoms: _498  and  _501
REMARK  209  A    between atoms: _501  and  _502
REMARK  210  A    between atoms: _502  and  _503
REMARK  211  A    between atoms: _503  and  _504
REMARK  212  A    between atoms: _513  and  _515
REMARK  213  A    between atoms: _515  and  _516
REMARK  214  A    between atoms: _515  and  _518
REMARK  215  A    between atoms: _518  and  _519
REMARK  216  A    between atoms: _519  and  _520
REMARK  217  A    between atoms: _523  and  _525
REMARK  218  A    between atoms: _525  and  _526
REMARK  219  A    between atoms: _525  and  _528
REMARK  220  A    between atoms: _528  and  _529
REMARK  221  A    between atoms: _529  and  _530
REMARK  222  A    between atoms: _530  and  _531
REMARK  223  A    between atoms: _540  and  _542
REMARK  224  A    between atoms: _542  and  _543
REMARK  225  A    between atoms: _542  and  _545
REMARK  226  A    between atoms: _548  and  _550
REMARK  227  A    between atoms: _550  and  _551
REMARK  228  A    between atoms: _550  and  _553
REMARK  229  A    between atoms: _553  and  _554
REMARK  230  A    between atoms: _554  and  _555
REMARK  231  A    between atoms: _558  and  _560
REMARK  232  A    between atoms: _560  and  _561
REMARK  233  A    between atoms: _560  and  _563
REMARK  234  A    between atoms: _563  and  _564
REMARK  235  A    between atoms: _567  and  _569
REMARK  236  A    between atoms: _569  and  _570
REMARK  237  A    between atoms: _569  and  _572
REMARK  238  A    between atoms: _572  and  _573
REMARK  239  A    between atoms: _573  and  _574
REMARK  240  A    between atoms: _577  and  _579
REMARK  241  A    between atoms: _579  and  _580
REMARK  242  A    between atoms: _579  and  _582
REMARK  243  A    between atoms: _582  and  _583
REMARK  244  A    between atoms: _583  and  _584
REMARK  245  A    between atoms: _589  and  _591
REMARK  246  A    between atoms: _591  and  _592
REMARK  247  A    between atoms: _594  and  _596
REMARK  248  A    between atoms: _596  and  _597
REMARK  249  A    between atoms: _596  and  _599
REMARK  250  A    between atoms: _599  and  _600
REMARK  251  A    between atoms: _600  and  _601
REMARK  252  A    between atoms: _606  and  _608
REMARK  253  A    between atoms: _608  and  _609
REMARK  254  A    between atoms: _608  and  _611
REMARK  255  A    between atoms: _611  and  _612
REMARK  256  A    between atoms: _615  and  _617
REMARK  257  A    between atoms: _617  and  _618
REMARK  258  A    between atoms: _617  and  _620
REMARK  259  A    between atoms: _620  and  _621
REMARK  260  A    between atoms: _627  and  _629
REMARK  261  A    between atoms: _629  and  _630
REMARK  262  A    between atoms: _632  and  _634
REMARK  263  A    between atoms: _634  and  _635
REMARK  264  A    between atoms: _634  and  _637
REMARK  265  A    between atoms: _637  and  _638
REMARK  266  A    between atoms: _638  and  _639
REMARK  267  A    between atoms: _643  and  _644
REMARK                            x       y       z     vdW  Elec       q    Type
REMARK                         _______ _______ _______ _____ _____    ______ ____
ROOT
ATOM      1  CA  VAL A   1      28.939  33.816  20.442  0.00  0.00    +0.133 C 
ENDROOT
BRANCH   1   2
ATOM      2  CB  VAL A   1      29.119  32.960  19.170  0.00  0.00    +0.023 C 
ATOM      3  CG2 VAL A   1      27.895  32.119  18.934  0.00  0.00    +0.002 C 
ATOM      4  CG1 VAL A   1      29.381  33.845  17.967  0.00  0.00    +0.002 C 
ENDBRANCH   1   2
BRANCH   1   5
ATOM      5  N   VAL A   1      30.194  34.404  20.889  0.00  0.00    -0.239 NA
ATOM      6  H   VAL A   1      31.090  34.103  20.456  0.00  0.00    +0.142 HD
ENDBRANCH   1   5
BRANCH   1   7
ATOM      7  C   VAL A   1      28.260  33.000  21.548  0.00  0.00    +0.224 C 
ATOM      8  O   VAL A   1      27.044  33.072  21.724  0.00  0.00    -0.287 OA
ENDBRANCH   1   7
TORSDOF 3
REMARK  Name = ../refined-set-2016/3pju/3pju_pocket.pdb
REMARK  267 active torsions:
REMARK  status: ('A' for Active; 'I' for Inactive)
REMARK    1  A    between atoms: _1  and  _3
REMARK    2  A    between atoms: _3  and  _4
REMARK    3  A    between atoms: _3  and  _6
REMARK    4  A    between atoms: _6  and  _7
REMARK    5  A    between atoms: _13  and  _15
REMARK    6  A    between atoms: _15  and  _16
REMARK    7  A    between atoms: _15  and  _18
REMARK    8  A    between atoms: _18  and  _19
REMARK    9  A    between atoms: _19  and  _20
REMARK   10  A    between atoms: _23  and  _25
REMARK   11  A    between atoms: _25  and  _26
REMARK   12  A    between atoms: _25  and  _28
REMARK   13  A    between atoms: _28  and  _29
REMARK   14  A    between atoms: _32  and  _34
REMARK   15  A    between atoms: _34  and  _35
REMARK   16  A    between atoms: _34  and  _37
REMARK   17  A    between atoms: _37  and  _38
REMARK   18  A    between atoms: _44  and  _46
REMARK   19  A    between atoms: _46  and  _47
REMARK   20  A    between atoms: _46  and  _49
REMARK   21  A    between atoms: _49  and  _50
REMARK   22  A    between atoms: _50  and  _51
REMARK   23  A    between atoms: _56  and  _58
REMARK   24  A    between atoms: _58  and  _59
REMARK   25  A    between atoms: _58  and  _61
REMARK   26  A    between atoms: _64  and  _66
REMARK   27  A    between atoms: _66  and  _67
REMARK   28  A    between atoms: _66  and  _69
REMARK   29  A    between atoms: _69  and  _70
REMARK   30  A    between atoms: _70  and  _71
REMARK   31  A    between atoms: _71  and  _72
REMARK   32  A    between atoms: _72  and  _73
REMARK   33  A    between atoms: _77  and  _79
REMARK   34  A    between atoms: _79  and  _80
REMARK   35  A    between atoms: _79  and  _82
REMARK   36  A    between atoms: _85  and  _87
REMARK   37  A    between atoms: _87  and  _88
REMARK   38  A    between atoms: _87  and  _90
REMARK   39  A    between atoms: _90  and  _91
REMARK   40  A    between atoms: _94  and  _96
REMARK   41  A    between atoms: _96  and  _97
REMARK   42  A    between atoms: _96  and  _99
REMARK   43  A    between atoms: _99  and  _100
REMARK   44  A    between atoms: _102  and  _104
REMARK   45  A    between atoms: _104  and  _105
REMARK   46  A    between atoms: _104  and  _107
REMARK   47  A    between atoms: _107  and  _108
REMARK   48  A    between atoms: _108  and  _109
REMARK   49  A    between atoms: _109  and  _110
REMARK   50  A    between atoms: _119  and  _121
REMARK   51  A    between atoms: _121  and  _122
REMARK   52  A    between atoms: _121  and  _124
REMARK   53  A    between atoms: _124  and  _125
REMARK   54  A    between atoms: _129  and  _130
REMARK   55  A    between atoms: _135  and  _137
REMARK   56  A    between atoms: _137  and  _138
REMARK   57  A    between atoms: _141  and  _143
REMARK   58  A    between atoms: _143  and  _144
REMARK   59  A    between atoms: _146  and  _148
REMARK   60  A    between atoms: _148  and  _149
REMARK   61  A    between atoms: _148  and  _151
REMARK   62  A    between atoms: _151  and  _152
REMARK   63  A    between atoms: _152  and  _153
REMARK   64  A    between atoms: _153  and  _154
REMARK   65  A    between atoms: _163  and  _165
REMARK   66  A    between atoms: _165  and  _166
REMARK   67  A    between atoms: _165  and  _168
REMARK   68  A    between atoms: _168  and  _169
REMARK   69  A    between atoms: _175  and  _177
REMARK   70  A    between atoms: _177  and  _178
REMARK   71  A    between atoms: _177  and  _180
REMARK   72  A    between atoms: _180  and  _181
REMARK   73  A    between atoms: _185  and  _186
REMARK   74  A    between atoms: _191  and  _193
REMARK   75  A    between atoms: _193  and  _194
REMARK   76  A    between atoms: _193  and  _196
REMARK   77  A    between atoms: _196  and  _197
REMARK   78  A    between atoms: _200  and  _202
REMARK   79  A    between atoms: _202  and  _203
REMARK   80  A    between atoms: _202  and  _205
REMARK   81  A    between atoms: _205  and  _206
REMARK   82  A    between atoms: _206  and  _207
REMARK   83  A    between atoms: _210  and  _212
REMARK   84  A    between atoms: _212  and  _213
REMARK   85  A    between atoms: _212  and  _215
REMARK   86  A    between atoms: _215  and  _216
REMARK   87  A    between atoms: _219  and  _221
REMARK   88  A    between atoms: _221  and  _222
REMARK   89  A    between atoms: _225  and  _227
REMARK   90  A    between atoms: _227  and  _228
REMARK   91  A    between atoms: _227  and  _230
REMARK   92  A    between atoms: _230  and  _231
REMARK   93  A    between atoms: _234  and  _236
REMARK   94  A    between atoms: _236  and  _237
REMARK   95  A    between atoms: _236  and  _239
REMARK   96  A    between atoms: _239  and  _240
REMARK   97  A    between atoms: _243  and  _245
REMARK   98  A    between atoms: _245  and  _246
REMARK   99  A    between atoms: _245  and  _248
REMARK  100  A    between atoms: _248  and  _249
REMARK  101  A    between atoms: _249  and  _250
REMARK  102  A    between atoms: _250  and  _251
REMARK  103  A    between atoms: _260  and  _262
REMARK  104  A    between atoms: _262  and  _263
REMARK  105  A    between atoms: _262  and  _265
REMARK  106  A    between atoms: _265  and  _266
REMARK  107  A    between atoms: _269  and  _271
REMARK  108  A    between atoms: _271  and  _272
REMARK  109  A    between atoms: _271  and  _274
REMARK  110  A    between atoms: _274  and  _275
REMARK  111  A    between atoms: _275  and  _276
REMARK  112  A    between atoms: _278  and  _280
REMARK  113  A    between atoms: _280  and  _281
REMARK  114  A    between atoms: _280  and  _283
REMARK  115  A    between atoms: _283  and  _284
REMARK  116  A    between atoms: _287  and  _289
REMARK  117  A    between atoms: _289  and  _290
REMARK  118  A    between atoms: _289  and  _292
REMARK  119  A    between atoms: _295  and  _297
REMARK  120  A    between atoms: _297  and  _298
REMARK  121  A    between atoms: _301  and  _303
REMARK  122  A    between atoms: _303  and  _304
REMARK  123  A    between atoms: _303  and  _306
REMARK  124  A    between atoms: _306  and  _307
REMARK  125  A    between atoms: _310  and  _312
REMARK  126  A    between atoms: _312  and  _313
REMARK  127  A    between atoms: _312  and  _315
REMARK  128  A    between atoms: _315  and  _316
REMARK  129  A    between atoms: _321  and  _323
REMARK  130  A    between atoms: _323  and  _324
REMARK  131  A    between atoms: _323  and  _326
REMARK  132  A    between atoms: _326  and  _327
REMARK  133  A    between atoms: _330  and  _332
REMARK  134  A    between atoms: _332  and  _333
REMARK  135  A    between atoms: _332  and  _335
REMARK  136  A    between atoms: _335  and  _336
REMARK  137  A    between atoms: _338  and  _340
REMARK  138  A    between atoms: _340  and  _341
REMARK  139  A    between atoms: _340  and  _343
REMARK  140  A    between atoms: _343  and  _344
REMARK  141  A    between atoms: _346  and  _348
REMARK  142  A    between atoms: _348  and  _349
REMARK  143  A    between atoms: _352  and  _354
REMARK  144  A    between atoms: _354  and  _355
REMARK  145  A    between atoms: _354  and  _357
REMARK  146  A    between atoms: _357  and  _358
REMARK  147  A    between atoms: _361  and  _363
REMARK  148  A    between atoms: _363  and  _364
REMARK  149  A    between atoms: _363  and  _366
REMARK  150  A    between atoms: _366  and  _367
REMARK  151  A    between atoms: _367  and  _368
REMARK  152  A    between atoms: _371  and  _373
REMARK  153  A    between atoms: _373  and  _374
REMARK  154  A    between atoms: _373  and  _376
REMARK  155  A    between atoms: _376  and  _377
REMARK  156  A    between atoms: _380  and  _382
REMARK  157  A    between atoms: _382  and  _383
REMARK  158  A    between atoms: _385  and  _387
REMARK  159  A    between atoms: _387  and  _388
REMARK  160  A    between atoms: _387  and  _390
REMARK  161  A    between atoms: _390  and  _391
REMARK  162  A    between atoms: _391  and  _392
REMARK  163  A    between atoms: _395  and  _397
REMARK  164  A    between atoms: _397  and  _398
REMARK  165  A    between atoms: _397  and  _400
REMARK  166  A    between atoms: _400  and  _401
REMARK  167  A    between atoms: _401  and  _402
REMARK  168  A    between atoms: _405  and  _407
REMARK  169  A    between atoms: _407  and  _408
REMARK  170  A    between atoms: _407  and  _410
REMARK  171  A    between atoms: _410  and  _411
REMARK  172  A    between atoms: _411  and  _412
REMARK  173  A    between atoms: _417  and  _419
REMARK  174  A    between atoms: _419  and  _420
REMARK  175  A    between atoms: _419  and  _422
REMARK  176  A    between atoms: _422  and  _423
REMARK  177  A    between atoms: _423  and  _424
REMARK  178  A    between atoms: _429  and  _431
REMARK  179  A    between atoms: _431  and  _432
REMARK  180  A    between atoms: _431  and  _434
REMARK  181  A    between atoms: _434  and  _435
REMARK  182  A    between atoms: _435  and  _436
REMARK  183  A    between atoms: _436  and  _437
REMARK  184  A    between atoms: _446  and  _448
REMARK  185  A    between atoms: _448  and  _449
REMARK  186  A    between atoms: _448  and  _451
REMARK  187  A    between atoms: _451  and  _452
REMARK  188  A    between atoms: _457  and  _458
REMARK  189  A    between atoms: _460  and  _462
REMARK  190  A    between atoms: _462  and  _463
REMARK  191  A    between atoms: _462  and  _465
REMARK  192  A    between atoms: _465  and  _466
REMARK  193  A    between atoms: _466  and  _467
REMARK  194  A    between atoms: _467  and  _468
REMARK  195  A    between atoms: _468  and  _469
REMARK  196  A    between atoms: _473  and  _475
REMARK  197  A    between atoms: _475  and  _476
REMARK  198  A    between atoms: _475  and  _478
REMARK  199  A    between atoms: _478  and  _479
REMARK  200  A    between atoms: _482  and  _484
REMARK  201  A    between atoms: _484  and  _485
REMARK  202  A    between atoms: _487  and  _489
REMARK  203  A    between atoms: _489  and  _490
REMARK  204  A    between atoms: _489  and  _492
REMARK  205  A    between atoms: _492  and  _493
REMARK  206  A    between atoms: _496  and  _498
REMARK  207  A    between atoms: _498  and  _499
REMARK  208  A    between atoms: _498  and  _501
REMARK  209  A    between atoms: _501  and  _502
REMARK  210  A    between atoms: _502  and  _503
REMARK  211  A    between atoms: _503  and  _504
REMARK  212  A    between atoms: _513  and  _515
REMARK  213  A    between atoms: _515  and  _516
REMARK  214  A    between atoms: _515  and  _518
REMARK  215  A    between atoms: _518  and  _519
REMARK  216  A    between atoms: _519  and  _520
REMARK  217  A    between atoms: _523  and  _525
REMARK  218  A    between atoms: _525  and  _526
REMARK  219  A    between atoms: _525  and  _528
REMARK  220  A    between atoms: _528  and  _529
REMARK  221  A    between atoms: _529  and  _530
REMARK  222  A    between atoms: _530  and  _531
REMARK  223  A    between atoms: _540  and  _542
REMARK  224  A    between atoms: _542  and  _543
REMARK  225  A    between atoms: _542  and  _545
REMARK  226  A    between atoms: _548  and  _550
REMARK  227  A    between atoms: _550  and  _551
REMARK  228  A    between atoms: _550  and  _553
REMARK  229  A    between atoms: _553  and  _554
REMARK  230  A    between atoms: _554  and  _555
REMARK  231  A    between atoms: _558  and  _560
REMARK  232  A    between atoms: _560  and  _561
REMARK  233  A    between atoms: _560  and  _563
REMARK  234  A    between atoms: _563  and  _564
REMARK  235  A    between atoms: _567  and  _569
REMARK  236  A    between atoms: _569  and  _570
REMARK  237  A    between atoms: _569  and  _572
REMARK  238  A    between atoms: _572  and  _573
REMARK  239  A    between atoms: _573  and  _574
REMARK  240  A    between atoms: _577  and  _579
REMARK  241  A    between atoms: _579  and  _580
REMARK  242  A    between atoms: _579  and  _582
REMARK  243  A    between atoms: _582  and  _583
REMARK  244  A    between atoms: _583  and  _584
REMARK  245  A    between atoms: _589  and  _591
REMARK  246  A    between atoms: _591  and  _592
REMARK  247  A    between atoms: _594  and  _596
REMARK  248  A    between atoms: _596  and  _597
REMARK  249  A    between atoms: _596  and  _599
REMARK  250  A    between atoms: _599  and  _600
REMARK  251  A    between atoms: _600  and  _601
REMARK  252  A    between atoms: _606  and  _608
REMARK  253  A    between atoms: _608  and  _609
REMARK  254  A    between atoms: _608  and  _611
REMARK  255  A    between atoms: _611  and  _612
REMARK  256  A    between atoms: _615  and  _617
REMARK  257  A    between atoms: _617  and  _618
REMARK  258  A    between atoms: _617  and  _620
REMARK  259  A    between atoms: _620  and  _621
REMARK  260  A    between atoms: _627  and  _629
REMARK  261  A    between atoms: _629  and  _630
REMARK  262  A    between atoms: _632  and  _634
REMARK  263  A    between atoms: _634  and  _635
REMARK  264  A    between atoms: _634  and  _637
REMARK  265  A    between atoms: _637  and  _638
REMARK  266  A    between atoms: _638  and  _639
REMARK  267  A    between atoms: _643  and  _644
REMARK                            x       y       z     vdW  Elec       q    Type
REMARK                         _______ _______ _______ _____ _____    ______ ____
ROOT
ATOM      1  CA  LEU A   4      35.917  27.540  12.067  0.00  0.00    +0.149 C 
ENDROOT
BRANCH   1   4
ATOM      2  C   ASN A   3      33.833  28.832  11.939  0.00  0.00    +0.241 C 
ATOM      3  O   ASN A   3      33.998  29.393  13.022  0.00  0.00    -0.273 OA
ATOM      4  N   LEU A   4      34.641  27.885  11.468  0.00  0.00    -0.297 N 
ATOM      5  H   LEU A   4      34.340  27.362  10.621  0.00  0.00    +0.150 HD
BRANCH   2   6
ATOM      6  CA  ASN A   3      32.671  29.204  11.017  0.00  0.00    +0.158 C 
BRANCH   6   9
ATOM      7  C   LEU A   2      30.766  29.181  12.487  0.00  0.00    +0.241 C 
ATOM      8  O   LEU A   2      30.926  27.980  12.693  0.00  0.00    -0.273 OA
ATOM      9  N   ASN A   3      31.556  29.864  11.669  0.00  0.00    -0.297 N 
ATOM     10  H   ASN A   3      31.376  30.873  11.495  0.00  0.00    +0.150 HD
BRANCH   7  11
ATOM     11  CA  LEU A   2      29.635  29.943  13.183  0.00  0.00    +0.149 C 
BRANCH  11  13
ATOM     12  C   ALA A   1      27.210  29.808  12.888  0.00  0.00    +0.238 C 
ATOM     13  N   LEU A   2      28.382  29.210  13.086  0.00  0.00    -0.297 N 
ATOM     14  H   LEU A   2      28.403  28.174  13.175  0.00  0.00    +0.150 HD
ATOM     15  O   ALA A   1      27.090  31.017  12.696  0.00  0.00    -0.274 OA
BRANCH  12  16
ATOM     16  CA  ALA A   1      25.979  28.916  12.928  0.00  0.00    +0.145 C 
ATOM     17  CB  ALA A   1      25.563  28.524  11.538  0.00  0.00    +0.028 C 
BRANCH  16  18
ATOM     18  N   ALA A   1      24.921  29.654  13.585  0.00  0.00    -0.238 NA
ATOM     19  H   ALA A   1      24.685  30.613  13.259  0.00  0.00    +0.142 HD
ENDBRANCH  16  18
ENDBRANCH  12  16
ENDBRANCH  11  13
BRANCH  11  20
ATOM     20  CB  LEU A   2      30.007  30.174  14.655  0.00  0.00    +0.029 C 
BRANCH  20  21
ATOM     21  CG  LEU A   2      31.415  30.765  14.868  0.00  0.00    +0.002 C 
ATOM     22  CD2 LEU A   2      31.830  30.747  16.331  0.00  0.00    +0.000 C 
ATOM     23  CD1 LEU A   2      31.468  32.175  14.316  0.00  0.00    +0.000 C 
ENDBRANCH  20  21
ENDBRANCH  11  20
ENDBRANCH   7  11
ENDBRANCH   6   9
BRANCH   6  24
ATOM     24  CB  ASN A   3      33.221  30.068   9.897  0.00  0.00    +0.114 C 
BRANCH  24  25
ATOM     25  CG  ASN A   3      32.329  30.091   8.702  0.00  0.00    +0.222 C 
ATOM     26  OD1 ASN A   3      31.712  31.099   8.415  0.00  0.00    -0.275 OA
ATOM     27  ND2 ASN A   3      32.281  28.990   7.970  0.00  0.00    -0.329 N 
ATOM     28 HD21 ASN A   3      32.826  28.152   8.255  0.00  0.00    +0.145 HD
ATOM     29 HD22 ASN A   3      31.698  28.963   7.109  0.00  0.00    +0.145 HD
ENDBRANCH  24  25
ENDBRANCH   6  24
ENDBRANCH   2   6
ENDBRANCH   1   4
BRANCH   1  30
ATOM     30  C   LEU A   4      36.899  27.530  10.925  0.00  0.00    +0.241 C 
ATOM     31  N   SER A   5      38.086  28.087  11.134  0.00  0.00    -0.295 N 
ATOM     32  H   SER A   5      38.300  28.507  12.061  0.00  0.00    +0.150 HD
ATOM     33  O   LEU A   4      36.578  27.032   9.849  0.00  0.00    -0.273 OA
BRANCH  31  34
ATOM     34  CA  SER A   5      39.094  28.118  10.081  0.00  0.00    +0.178 C 
BRANCH  34  35
ATOM     35  C   SER A   5      39.998  26.891  10.138  0.00  0.00    +0.243 C 
ATOM     36  O   SER A   5      40.015  26.162  11.132  0.00  0.00    -0.273 OA
ATOM     37  N   SER A   6      40.739  26.659   9.061  0.00  0.00    -0.295 N 
ATOM     38  H   SER A   6      40.673  27.302   8.246  0.00  0.00    +0.150 HD
BRANCH  37  39
ATOM     39  CA  SER A   6      41.642  25.519   9.003  0.00  0.00    +0.178 C 
BRANCH  39  40
ATOM     40  C   SER A   6      42.792  25.687   9.990  0.00  0.00    +0.243 C 
ATOM     41  O   SER A   6      43.289  24.703  10.533  0.00  0.00    -0.273 OA
ATOM     42  N   ALA A   7      43.203  26.932  10.230  0.00  0.00    -0.297 N 
ATOM     43  H   ALA A   7      42.758  27.727   9.729  0.00  0.00    +0.150 HD
BRANCH  42  44
ATOM     44  CA  ALA A   7      44.274  27.190  11.191  0.00  0.00    +0.149 C 
ATOM     45  CB  ALA A   7      44.530  28.675  11.329  0.00  0.00    +0.031 C 
BRANCH  44  46
ATOM     46  C   ALA A   7      43.931  26.577  12.546  0.00  0.00    +0.241 C 
ATOM     47  O   ALA A   7      44.780  25.985  13.204  0.00  0.00    -0.273 OA
ATOM     48  N   THR A   8      42.680  26.717  12.953  0.00  0.00    -0.296 N 
ATOM     49  H   THR A   8      42.014  27.266  12.373  0.00  0.00    +0.150 HD
BRANCH  48  50
ATOM     50  CA  THR A   8      42.218  26.120  14.193  0.00  0.00    +0.164 C 
BRANCH  50  51
ATOM     51  C   THR A   8      42.168  24.588  14.114  0.00  0.00    +0.229 C 
ATOM     52  O   THR A   8      42.578  23.904  15.049  0.00  0.00    -0.286 OA
ENDBRANCH  50  51
BRANCH  50  53
ATOM     53  CB  THR A   8      40.839  26.676  14.583  0.00  0.00    +0.136 C 
ATOM     54  CG2 THR A   8      40.222  25.862  15.708  0.00  0.00    +0.034 C 
BRANCH  53  55
ATOM     55  OG1 THR A   8      40.991  28.035  15.009  0.00  0.00    -0.382 OA
ATOM     56  HG1 THR A   8      40.107  28.401  15.262  0.00  0.00    +0.210 HD
ENDBRANCH  53  55
ENDBRANCH  50  53
ENDBRANCH  48  50
ENDBRANCH  44  46
ENDBRANCH  42  44
ENDBRANCH  39  40
BRANCH  39  57
ATOM     57  CB  SER A   6      42.178  25.308   7.584  0.00  0.00    +0.166 C 
BRANCH  57  58
ATOM     58  OG  SER A   6      42.653  26.517   7.016  0.00  0.00    -0.380 OA
ATOM     59  H   SER A   6      42.990  26.341   6.102  0.00  0.00    +0.211 HD
ENDBRANCH  57  58
ENDBRANCH  39  57
ENDBRANCH  37  39
ENDBRANCH  34  35
BRANCH  34  60
ATOM     60  CB  SER A   5      39.927  29.387  10.185  0.00  0.00    +0.166 C 
BRANCH  60  61
ATOM     61  OG  SER A   5      39.945  29.848  11.521  0.00  0.00    -0.380 OA
ATOM     62  H   SER A   5      39.020  30.041  11.815  0.00  0.00    +0.211 HD
ENDBRANCH  60  61
ENDBRANCH  34  60
ENDBRANCH  31  34
ENDBRANCH   1  30
BRANCH   1  63
ATOM     63  CB  LEU A   4      35.843  26.152  12.665  0.00  0.00    +0.029 C 
BRANCH  63  64
ATOM     64  CG  LEU A   4      35.973  26.055  14.177  0.00  0.00    +0.002 C 
ATOM     65  CD2 LEU A   4      35.382  27.261  14.869  0.00  0.00    +0.000 C 
ATOM     66  CD1 LEU A   4      35.327  24.779  14.664  0.00  0.00    +0.000 C 
ENDBRANCH  63  64
ENDBRANCH   1  63
TORSDOF 28
REMARK  Name = ../refined-set-2016/3pju/3pju_pocket.pdb
REMARK  267 active torsions:
REMARK  status: ('A' for Active; 'I' for Inactive)
REMARK    1  A    between atoms: _1  and  _3
REMARK    2  A    between atoms: _3  and  _4
REMARK    3  A    between atoms: _3  and  _6
REMARK    4  A    between atoms: _6  and  _7
REMARK    5  A    between atoms: _13  and  _15
REMARK    6  A    between atoms: _15  and  _16
REMARK    7  A    between atoms: _15  and  _18
REMARK    8  A    between atoms: _18  and  _19
REMARK    9  A    between atoms: _19  and  _20
REMARK   10  A    between atoms: _23  and  _25
REMARK   11  A    between atoms: _25  and  _26
REMARK   12  A    between atoms: _25  and  _28
REMARK   13  A    between atoms: _28  and  _29
REMARK   14  A    between atoms: _32  and  _34
REMARK   15  A    between atoms: _34  and  _35
REMARK   16  A    between atoms: _34  and  _37
REMARK   17  A    between atoms: _37  and  _38
REMARK   18  A    between atoms: _44  and  _46
REMARK   19  A    between atoms: _46  and  _47
REMARK   20  A    between atoms: _46  and  _49
REMARK   21  A    between atoms: _49  and  _50
REMARK   22  A    between atoms: _50  and  _51
REMARK   23  A    between atoms: _56  and  _58
REMARK   24  A    between atoms: _58  and  _59
REMARK   25  A    between atoms: _58  and  _61
REMARK   26  A    between atoms: _64  and  _66
REMARK   27  A    between atoms: _66  and  _67
REMARK   28  A    between atoms: _66  and  _69
REMARK   29  A    between atoms: _69  and  _70
REMARK   30  A    between atoms: _70  and  _71
REMARK   31  A    between atoms: _71  and  _72
REMARK   32  A    between atoms: _72  and  _73
REMARK   33  A    between atoms: _77  and  _79
REMARK   34  A    between atoms: _79  and  _80
REMARK   35  A    between atoms: _79  and  _82
REMARK   36  A    between atoms: _85  and  _87
REMARK   37  A    between atoms: _87  and  _88
REMARK   38  A    between atoms: _87  and  _90
REMARK   39  A    between atoms: _90  and  _91
REMARK   40  A    between atoms: _94  and  _96
REMARK   41  A    between atoms: _96  and  _97
REMARK   42  A    between atoms: _96  and  _99
REMARK   43  A    between atoms: _99  and  _100
REMARK   44  A    between atoms: _102  and  _104
REMARK   45  A    between atoms: _104  and  _105
REMARK   46  A    between atoms: _104  and  _107
REMARK   47  A    between atoms: _107  and  _108
REMARK   48  A    between atoms: _108  and  _109
REMARK   49  A    between atoms: _109  and  _110
REMARK   50  A    between atoms: _119  and  _121
REMARK   51  A    between atoms: _121  and  _122
REMARK   52  A    between atoms: _121  and  _124
REMARK   53  A    between atoms: _124  and  _125
REMARK   54  A    between atoms: _129  and  _130
REMARK   55  A    between atoms: _135  and  _137
REMARK   56  A    between atoms: _137  and  _138
REMARK   57  A    between atoms: _141  and  _143
REMARK   58  A    between atoms: _143  and  _144
REMARK   59  A    between atoms: _146  and  _148
REMARK   60  A    between atoms: _148  and  _149
REMARK   61  A    between atoms: _148  and  _151
REMARK   62  A    between atoms: _151  and  _152
REMARK   63  A    between atoms: _152  and  _153
REMARK   64  A    between atoms: _153  and  _154
REMARK   65  A    between atoms: _163  and  _165
REMARK   66  A    between atoms: _165  and  _166
REMARK   67  A    between atoms: _165  and  _168
REMARK   68  A    between atoms: _168  and  _169
REMARK   69  A    between atoms: _175  and  _177
REMARK   70  A    between atoms: _177  and  _178
REMARK   71  A    between atoms: _177  and  _180
REMARK   72  A    between atoms: _180  and  _181
REMARK   73  A    between atoms: _185  and  _186
REMARK   74  A    between atoms: _191  and  _193
REMARK   75  A    between atoms: _193  and  _194
REMARK   76  A    between atoms: _193  and  _196
REMARK   77  A    between atoms: _196  and  _197
REMARK   78  A    between atoms: _200  and  _202
REMARK   79  A    between atoms: _202  and  _203
REMARK   80  A    between atoms: _202  and  _205
REMARK   81  A    between atoms: _205  and  _206
REMARK   82  A    between atoms: _206  and  _207
REMARK   83  A    between atoms: _210  and  _212
REMARK   84  A    between atoms: _212  and  _213
REMARK   85  A    between atoms: _212  and  _215
REMARK   86  A    between atoms: _215  and  _216
REMARK   87  A    between atoms: _219  and  _221
REMARK   88  A    between atoms: _221  and  _222
REMARK   89  A    between atoms: _225  and  _227
REMARK   90  A    between atoms: _227  and  _228
REMARK   91  A    between atoms: _227  and  _230
REMARK   92  A    between atoms: _230  and  _231
REMARK   93  A    between atoms: _234  and  _236
REMARK   94  A    between atoms: _236  and  _237
REMARK   95  A    between atoms: _236  and  _239
REMARK   96  A    between atoms: _239  and  _240
REMARK   97  A    between atoms: _243  and  _245
REMARK   98  A    between atoms: _245  and  _246
REMARK   99  A    between atoms: _245  and  _248
REMARK  100  A    between atoms: _248  and  _249
REMARK  101  A    between atoms: _249  and  _250
REMARK  102  A    between atoms: _250  and  _251
REMARK  103  A    between atoms: _260  and  _262
REMARK  104  A    between atoms: _262  and  _263
REMARK  105  A    between atoms: _262  and  _265
REMARK  106  A    between atoms: _265  and  _266
REMARK  107  A    between atoms: _269  and  _271
REMARK  108  A    between atoms: _271  and  _272
REMARK  109  A    between atoms: _271  and  _274
REMARK  110  A    between atoms: _274  and  _275
REMARK  111  A    between atoms: _275  and  _276
REMARK  112  A    between atoms: _278  and  _280
REMARK  113  A    between atoms: _280  and  _281
REMARK  114  A    between atoms: _280  and  _283
REMARK  115  A    between atoms: _283  and  _284
REMARK  116  A    between atoms: _287  and  _289
REMARK  117  A    between atoms: _289  and  _290
REMARK  118  A    between atoms: _289  and  _292
REMARK  119  A    between atoms: _295  and  _297
REMARK  120  A    between atoms: _297  and  _298
REMARK  121  A    between atoms: _301  and  _303
REMARK  122  A    between atoms: _303  and  _304
REMARK  123  A    between atoms: _303  and  _306
REMARK  124  A    between atoms: _306  and  _307
REMARK  125  A    between atoms: _310  and  _312
REMARK  126  A    between atoms: _312  and  _313
REMARK  127  A    between atoms: _312  and  _315
REMARK  128  A    between atoms: _315  and  _316
REMARK  129  A    between atoms: _321  and  _323
REMARK  130  A    between atoms: _323  and  _324
REMARK  131  A    between atoms: _323  and  _326
REMARK  132  A    between atoms: _326  and  _327
REMARK  133  A    between atoms: _330  and  _332
REMARK  134  A    between atoms: _332  and  _333
REMARK  135  A    between atoms: _332  and  _335
REMARK  136  A    between atoms: _335  and  _336
REMARK  137  A    between atoms: _338  and  _340
REMARK  138  A    between atoms: _340  and  _341
REMARK  139  A    between atoms: _340  and  _343
REMARK  140  A    between atoms: _343  and  _344
REMARK  141  A    between atoms: _346  and  _348
REMARK  142  A    between atoms: _348  and  _349
REMARK  143  A    between atoms: _352  and  _354
REMARK  144  A    between atoms: _354  and  _355
REMARK  145  A    between atoms: _354  and  _357
REMARK  146  A    between atoms: _357  and  _358
REMARK  147  A    between atoms: _361  and  _363
REMARK  148  A    between atoms: _363  and  _364
REMARK  149  A    between atoms: _363  and  _366
REMARK  150  A    between atoms: _366  and  _367
REMARK  151  A    between atoms: _367  and  _368
REMARK  152  A    between atoms: _371  and  _373
REMARK  153  A    between atoms: _373  and  _374
REMARK  154  A    between atoms: _373  and  _376
REMARK  155  A    between atoms: _376  and  _377
REMARK  156  A    between atoms: _380  and  _382
REMARK  157  A    between atoms: _382  and  _383
REMARK  158  A    between atoms: _385  and  _387
REMARK  159  A    between atoms: _387  and  _388
REMARK  160  A    between atoms: _387  and  _390
REMARK  161  A    between atoms: _390  and  _391
REMARK  162  A    between atoms: _391  and  _392
REMARK  163  A    between atoms: _395  and  _397
REMARK  164  A    between atoms: _397  and  _398
REMARK  165  A    between atoms: _397  and  _400
REMARK  166  A    between atoms: _400  and  _401
REMARK  167  A    between atoms: _401  and  _402
REMARK  168  A    between atoms: _405  and  _407
REMARK  169  A    between atoms: _407  and  _408
REMARK  170  A    between atoms: _407  and  _410
REMARK  171  A    between atoms: _410  and  _411
REMARK  172  A    between atoms: _411  and  _412
REMARK  173  A    between atoms: _417  and  _419
REMARK  174  A    between atoms: _419  and  _420
REMARK  175  A    between atoms: _419  and  _422
REMARK  176  A    between atoms: _422  and  _423
REMARK  177  A    between atoms: _423  and  _424
REMARK  178  A    between atoms: _429  and  _431
REMARK  179  A    between atoms: _431  and  _432
REMARK  180  A    between atoms: _431  and  _434
REMARK  181  A    between atoms: _434  and  _435
REMARK  182  A    between atoms: _435  and  _436
REMARK  183  A    between atoms: _436  and  _437
REMARK  184  A    between atoms: _446  and  _448
REMARK  185  A    between atoms: _448  and  _449
REMARK  186  A    between atoms: _448  and  _451
REMARK  187  A    between atoms: _451  and  _452
REMARK  188  A    between atoms: _457  and  _458
REMARK  189  A    between atoms: _460  and  _462
REMARK  190  A    between atoms: _462  and  _463
REMARK  191  A    between atoms: _462  and  _465
REMARK  192  A    between atoms: _465  and  _466
REMARK  193  A    between atoms: _466  and  _467
REMARK  194  A    between atoms: _467  and  _468
REMARK  195  A    between atoms: _468  and  _469
REMARK  196  A    between atoms: _473  and  _475
REMARK  197  A    between atoms: _475  and  _476
REMARK  198  A    between atoms: _475  and  _478
REMARK  199  A    between atoms: _478  and  _479
REMARK  200  A    between atoms: _482  and  _484
REMARK  201  A    between atoms: _484  and  _485
REMARK  202  A    between atoms: _487  and  _489
REMARK  203  A    between atoms: _489  and  _490
REMARK  204  A    between atoms: _489  and  _492
REMARK  205  A    between atoms: _492  and  _493
REMARK  206  A    between atoms: _496  and  _498
REMARK  207  A    between atoms: _498  and  _499
REMARK  208  A    between atoms: _498  and  _501
REMARK  209  A    between atoms: _501  and  _502
REMARK  210  A    between atoms: _502  and  _503
REMARK  211  A    between atoms: _503  and  _504
REMARK  212  A    between atoms: _513  and  _515
REMARK  213  A    between atoms: _515  and  _516
REMARK  214  A    between atoms: _515  and  _518
REMARK  215  A    between atoms: _518  and  _519
REMARK  216  A    between atoms: _519  and  _520
REMARK  217  A    between atoms: _523  and  _525
REMARK  218  A    between atoms: _525  and  _526
REMARK  219  A    between atoms: _525  and  _528
REMARK  220  A    between atoms: _528  and  _529
REMARK  221  A    between atoms: _529  and  _530
REMARK  222  A    between atoms: _530  and  _531
REMARK  223  A    between atoms: _540  and  _542
REMARK  224  A    between atoms: _542  and  _543
REMARK  225  A    between atoms: _542  and  _545
REMARK  226  A    between atoms: _548  and  _550
REMARK  227  A    between atoms: _550  and  _551
REMARK  228  A    between atoms: _550  and  _553
REMARK  229  A    between atoms: _553  and  _554
REMARK  230  A    between atoms: _554  and  _555
REMARK  231  A    between atoms: _558  and  _560
REMARK  232  A    between atoms: _560  and  _561
REMARK  233  A    between atoms: _560  and  _563
REMARK  234  A    between atoms: _563  and  _564
REMARK  235  A    between atoms: _567  and  _569
REMARK  236  A    between atoms: _569  and  _570
REMARK  237  A    between atoms: _569  and  _572
REMARK  238  A    between atoms: _572  and  _573
REMARK  239  A    between atoms: _573  and  _574
REMARK  240  A    between atoms: _577  and  _579
REMARK  241  A    between atoms: _579  and  _580
REMARK  242  A    between atoms: _579  and  _582
REMARK  243  A    between atoms: _582  and  _583
REMARK  244  A    between atoms: _583  and  _584
REMARK  245  A    between atoms: _589  and  _591
REMARK  246  A    between atoms: _591  and  _592
REMARK  247  A    between atoms: _594  and  _596
REMARK  248  A    between atoms: _596  and  _597
REMARK  249  A    between atoms: _596  and  _599
REMARK  250  A    between atoms: _599  and  _600
REMARK  251  A    between atoms: _600  and  _601
REMARK  252  A    between atoms: _606  and  _608
REMARK  253  A    between atoms: _608  and  _609
REMARK  254  A    between atoms: _608  and  _611
REMARK  255  A    between atoms: _611  and  _612
REMARK  256  A    between atoms: _615  and  _617
REMARK  257  A    between atoms: _617  and  _618
REMARK  258  A    between atoms: _617  and  _620
REMARK  259  A    between atoms: _620  and  _621
REMARK  260  A    between atoms: _627  and  _629
REMARK  261  A    between atoms: _629  and  _630
REMARK  262  A    between atoms: _632  and  _634
REMARK  263  A    between atoms: _634  and  _635
REMARK  264  A    between atoms: _634  and  _637
REMARK  265  A    between atoms: _637  and  _638
REMARK  266  A    between atoms: _638  and  _639
REMARK  267  A    between atoms: _643  and  _644
REMARK                            x       y       z     vdW  Elec       q    Type
REMARK                         _______ _______ _______ _____ _____    ______ ____
ROOT
ATOM      1  CA  GLU A   4      34.808  23.978   1.198  0.00  0.00    +0.149 C 
ENDROOT
BRANCH   1   2
ATOM      2  C   GLU A   4      36.296  24.284   0.961  0.00  0.00    +0.241 C 
ATOM      3  N   GLU A   5      36.672  25.578   0.910  0.00  0.00    -0.297 N 
ATOM      4  H   GLU A   5      35.949  26.310   1.060  0.00  0.00    +0.150 HD
ATOM      5  O   GLU A   4      37.077  23.349   0.815  0.00  0.00    -0.273 OA
BRANCH   3   6
ATOM      6  CA  GLU A   5      38.068  26.007   0.650  0.00  0.00    +0.149 C 
BRANCH   6   7
ATOM      7  C   GLU A   5      39.065  25.392   1.608  0.00  0.00    +0.241 C 
ATOM      8  N   GLN A   6      38.641  25.167   2.842  0.00  0.00    -0.298 N 
ATOM      9  H   GLN A   6      37.628  25.248   3.063  0.00  0.00    +0.150 HD
ATOM     10  O   GLU A   5      40.219  25.187   1.255  0.00  0.00    -0.273 OA
BRANCH   8  11
ATOM     11  CA  GLN A   6      39.579  24.808   3.887  0.00  0.00    +0.137 C 
BRANCH  11  12
ATOM     12  C   GLN A   6      39.169  23.556   4.637  0.00  0.00    +0.227 C 
ATOM     13  O   GLN A   6      39.427  23.436   5.832  0.00  0.00    -0.286 OA
ENDBRANCH  11  12
BRANCH  11  14
ATOM     14  CB  GLN A   6      39.770  25.979   4.850  0.00  0.00    +0.037 C 
BRANCH  14  15
ATOM     15  CG  GLN A   6      38.483  26.626   5.338  0.00  0.00    +0.087 C 
BRANCH  15  16
ATOM     16  CD  GLN A   6      38.726  28.016   5.931  0.00  0.00    +0.219 C 
ATOM     17  OE1 GLN A   6      39.337  28.161   6.998  0.00  0.00    -0.275 OA
ATOM     18  NE2 GLN A   6      38.244  29.040   5.241  0.00  0.00    -0.329 N 
ATOM     19 HE21 GLN A   6      38.373  30.010   5.592  0.00  0.00    +0.145 HD
ATOM     20 HE22 GLN A   6      37.737  28.873   4.349  0.00  0.00    +0.145 HD
ENDBRANCH  15  16
ENDBRANCH  14  15
ENDBRANCH  11  14
ENDBRANCH   8  11
ENDBRANCH   6   7
BRANCH   6  21
ATOM     21  CB  GLU A   5      38.299  27.535   0.799  0.00  0.00    +0.041 C 
BRANCH  21  22
ATOM     22  CG  GLU A   5      37.149  28.445   0.503  0.00  0.00    +0.116 C 
BRANCH  22  23
ATOM     23  CD  GLU A   5      36.198  28.608   1.671  0.00  0.00    +0.365 C 
ATOM     24  OE2 GLU A   5      36.620  28.806   2.832  0.00  0.00    -0.246 OA
ATOM     25  OE1 GLU A   5      34.999  28.563   1.404  0.00  0.00    -0.246 OA
ENDBRANCH  22  23
ENDBRANCH  21  22
ENDBRANCH   6  21
ENDBRANCH   3   6
ENDBRANCH   1   2
BRANCH   1  28
ATOM     26  C   GLY A   3      34.712  25.334   3.208  0.00  0.00    +0.243 C 
ATOM     27  O   GLY A   3      35.728  24.815   3.662  0.00  0.00    -0.273 OA
ATOM     28  N   GLU A   4      34.168  24.964   2.059  0.00  0.00    -0.297 N 
ATOM     29  H   GLU A   4      33.264  25.386   1.765  0.00  0.00    +0.150 HD
BRANCH  26  30
ATOM     30  CA  GLY A   3      34.009  26.437   3.964  0.00  0.00    +0.176 C 
BRANCH  30  32
ATOM     31  C   ILE A   2      33.491  25.191   5.947  0.00  0.00    +0.241 C 
ATOM     32  N   GLY A   3      34.145  26.192   5.380  0.00  0.00    -0.295 N 
ATOM     33  H   GLY A   3      34.758  26.803   5.956  0.00  0.00    +0.150 HD
ATOM     34  O   ILE A   2      32.684  24.500   5.336  0.00  0.00    -0.273 OA
BRANCH  31  35
ATOM     35  CA  ILE A   2      33.769  24.919   7.406  0.00  0.00    +0.148 C 
BRANCH  35  38
ATOM     36  C   GLU A   1      32.157  25.523   9.120  0.00  0.00    +0.238 C 
ATOM     37  O   GLU A   1      32.940  26.298   9.649  0.00  0.00    -0.274 OA
ATOM     38  N   ILE A   2      32.486  24.771   8.080  0.00  0.00    -0.297 N 
ATOM     39  H   ILE A   2      31.812  24.058   7.736  0.00  0.00    +0.150 HD
BRANCH  36  40
ATOM     40  CA  GLU A   1      30.730  25.415   9.611  0.00  0.00    +0.145 C 
BRANCH  40  41
ATOM     41  N   GLU A   1      30.649  25.592  11.059  0.00  0.00    -0.238 NA
ATOM     42  H   GLU A   1      31.000  26.472  11.488  0.00  0.00    +0.142 HD
ENDBRANCH  40  41
BRANCH  40  43
ATOM     43  CB  GLU A   1      29.902  26.473   8.869  0.00  0.00    +0.038 C 
BRANCH  43  44
ATOM     44  CG  GLU A   1      28.415  26.473   9.135  0.00  0.00    +0.116 C 
BRANCH  44  45
ATOM     45  CD  GLU A   1      27.686  27.475   8.249  0.00  0.00    +0.365 C 
ATOM     46  OE2 GLU A   1      26.500  27.752   8.521  0.00  0.00    -0.246 OA
ATOM     47  OE1 GLU A   1      28.294  27.980   7.277  0.00  0.00    -0.246 OA
ENDBRANCH  44  45
ENDBRANCH  43  44
ENDBRANCH  40  43
ENDBRANCH  36  40
ENDBRANCH  35  38
BRANCH  35  48
ATOM     48  CB  ILE A   2      34.572  23.623   7.443  0.00  0.00    +0.027 C 
ATOM     49  CG2 ILE A   2      35.906  23.835   6.804  0.00  0.00    +0.002 C 
BRANCH  48  50
ATOM     50  CG1 ILE A   2      34.721  23.109   8.867  0.00  0.00    +0.002 C 
ATOM     51  CD1 ILE A   2      34.828  21.593   8.918  0.00  0.00    +0.000 C 
ENDBRANCH  48  50
ENDBRANCH  35  48
ENDBRANCH  31  35
ENDBRANCH  30  32
ENDBRANCH  26  30
ENDBRANCH   1  28
BRANCH   1  52
ATOM     52  CB  GLU A   4      34.085  23.922  -0.144  0.00  0.00    +0.041 C 
BRANCH  52  53
ATOM     53  CG  GLU A   4      34.293  22.646  -0.938  0.00  0.00    +0.116 C 
BRANCH  53  54
ATOM     54  CD  GLU A   4      33.888  22.818  -2.396  0.00  0.00    +0.365 C 
ATOM     55  OE2 GLU A   4      32.977  22.089  -2.843  0.00  0.00    -0.246 OA
ATOM     56  OE1 GLU A   4      34.467  23.697  -3.086  0.00  0.00    -0.246 OA
ENDBRANCH  53  54
ENDBRANCH  52  53
ENDBRANCH   1  52
TORSDOF 26
REMARK  Name = ../refined-set-2016/3pju/3pju_pocket.pdb
REMARK  267 active torsions:
REMARK  status: ('A' for Active; 'I' for Inactive)
REMARK    1  A    between atoms: _1  and  _3
REMARK    2  A    between atoms: _3  and  _4
REMARK    3  A    between atoms: _3  and  _6
REMARK    4  A    between atoms: _6  and  _7
REMARK    5  A    between atoms: _13  and  _15
REMARK    6  A    between atoms: _15  and  _16
REMARK    7  A    between atoms: _15  and  _18
REMARK    8  A    between atoms: _18  and  _19
REMARK    9  A    between atoms: _19  and  _20
REMARK   10  A    between atoms: _23  and  _25
REMARK   11  A    between atoms: _25  and  _26
REMARK   12  A    between atoms: _25  and  _28
REMARK   13  A    between atoms: _28  and  _29
REMARK   14  A    between atoms: _32  and  _34
REMARK   15  A    between atoms: _34  and  _35
REMARK   16  A    between atoms: _34  and  _37
REMARK   17  A    between atoms: _37  and  _38
REMARK   18  A    between atoms: _44  and  _46
REMARK   19  A    between atoms: _46  and  _47
REMARK   20  A    between atoms: _46  and  _49
REMARK   21  A    between atoms: _49  and  _50
REMARK   22  A    between atoms: _50  and  _51
REMARK   23  A    between atoms: _56  and  _58
REMARK   24  A    between atoms: _58  and  _59
REMARK   25  A    between atoms: _58  and  _61
REMARK   26  A    between atoms: _64  and  _66
REMARK   27  A    between atoms: _66  and  _67
REMARK   28  A    between atoms: _66  and  _69
REMARK   29  A    between atoms: _69  and  _70
REMARK   30  A    between atoms: _70  and  _71
REMARK   31  A    between atoms: _71  and  _72
REMARK   32  A    between atoms: _72  and  _73
REMARK   33  A    between atoms: _77  and  _79
REMARK   34  A    between atoms: _79  and  _80
REMARK   35  A    between atoms: _79  and  _82
REMARK   36  A    between atoms: _85  and  _87
REMARK   37  A    between atoms: _87  and  _88
REMARK   38  A    between atoms: _87  and  _90
REMARK   39  A    between atoms: _90  and  _91
REMARK   40  A    between atoms: _94  and  _96
REMARK   41  A    between atoms: _96  and  _97
REMARK   42  A    between atoms: _96  and  _99
REMARK   43  A    between atoms: _99  and  _100
REMARK   44  A    between atoms: _102  and  _104
REMARK   45  A    between atoms: _104  and  _105
REMARK   46  A    between atoms: _104  and  _107
REMARK   47  A    between atoms: _107  and  _108
REMARK   48  A    between atoms: _108  and  _109
REMARK   49  A    between atoms: _109  and  _110
REMARK   50  A    between atoms: _119  and  _121
REMARK   51  A    between atoms: _121  and  _122
REMARK   52  A    between atoms: _121  and  _124
REMARK   53  A    between atoms: _124  and  _125
REMARK   54  A    between atoms: _129  and  _130
REMARK   55  A    between atoms: _135  and  _137
REMARK   56  A    between atoms: _137  and  _138
REMARK   57  A    between atoms: _141  and  _143
REMARK   58  A    between atoms: _143  and  _144
REMARK   59  A    between atoms: _146  and  _148
REMARK   60  A    between atoms: _148  and  _149
REMARK   61  A    between atoms: _148  and  _151
REMARK   62  A    between atoms: _151  and  _152
REMARK   63  A    between atoms: _152  and  _153
REMARK   64  A    between atoms: _153  and  _154
REMARK   65  A    between atoms: _163  and  _165
REMARK   66  A    between atoms: _165  and  _166
REMARK   67  A    between atoms: _165  and  _168
REMARK   68  A    between atoms: _168  and  _169
REMARK   69  A    between atoms: _175  and  _177
REMARK   70  A    between atoms: _177  and  _178
REMARK   71  A    between atoms: _177  and  _180
REMARK   72  A    between atoms: _180  and  _181
REMARK   73  A    between atoms: _185  and  _186
REMARK   74  A    between atoms: _191  and  _193
REMARK   75  A    between atoms: _193  and  _194
REMARK   76  A    between atoms: _193  and  _196
REMARK   77  A    between atoms: _196  and  _197
REMARK   78  A    between atoms: _200  and  _202
REMARK   79  A    between atoms: _202  and  _203
REMARK   80  A    between atoms: _202  and  _205
REMARK   81  A    between atoms: _205  and  _206
REMARK   82  A    between atoms: _206  and  _207
REMARK   83  A    between atoms: _210  and  _212
REMARK   84  A    between atoms: _212  and  _213
REMARK   85  A    between atoms: _212  and  _215
REMARK   86  A    between atoms: _215  and  _216
REMARK   87  A    between atoms: _219  and  _221
REMARK   88  A    between atoms: _221  and  _222
REMARK   89  A    between atoms: _225  and  _227
REMARK   90  A    between atoms: _227  and  _228
REMARK   91  A    between atoms: _227  and  _230
REMARK   92  A    between atoms: _230  and  _231
REMARK   93  A    between atoms: _234  and  _236
REMARK   94  A    between atoms: _236  and  _237
REMARK   95  A    between atoms: _236  and  _239
REMARK   96  A    between atoms: _239  and  _240
REMARK   97  A    between atoms: _243  and  _245
REMARK   98  A    between atoms: _245  and  _246
REMARK   99  A    between atoms: _245  and  _248
REMARK  100  A    between atoms: _248  and  _249
REMARK  101  A    between atoms: _249  and  _250
REMARK  102  A    between atoms: _250  and  _251
REMARK  103  A    between atoms: _260  and  _262
REMARK  104  A    between atoms: _262  and  _263
REMARK  105  A    between atoms: _262  and  _265
REMARK  106  A    between atoms: _265  and  _266
REMARK  107  A    between atoms: _269  and  _271
REMARK  108  A    between atoms: _271  and  _272
REMARK  109  A    between atoms: _271  and  _274
REMARK  110  A    between atoms: _274  and  _275
REMARK  111  A    between atoms: _275  and  _276
REMARK  112  A    between atoms: _278  and  _280
REMARK  113  A    between atoms: _280  and  _281
REMARK  114  A    between atoms: _280  and  _283
REMARK  115  A    between atoms: _283  and  _284
REMARK  116  A    between atoms: _287  and  _289
REMARK  117  A    between atoms: _289  and  _290
REMARK  118  A    between atoms: _289  and  _292
REMARK  119  A    between atoms: _295  and  _297
REMARK  120  A    between atoms: _297  and  _298
REMARK  121  A    between atoms: _301  and  _303
REMARK  122  A    between atoms: _303  and  _304
REMARK  123  A    between atoms: _303  and  _306
REMARK  124  A    between atoms: _306  and  _307
REMARK  125  A    between atoms: _310  and  _312
REMARK  126  A    between atoms: _312  and  _313
REMARK  127  A    between atoms: _312  and  _315
REMARK  128  A    between atoms: _315  and  _316
REMARK  129  A    between atoms: _321  and  _323
REMARK  130  A    between atoms: _323  and  _324
REMARK  131  A    between atoms: _323  and  _326
REMARK  132  A    between atoms: _326  and  _327
REMARK  133  A    between atoms: _330  and  _332
REMARK  134  A    between atoms: _332  and  _333
REMARK  135  A    between atoms: _332  and  _335
REMARK  136  A    between atoms: _335  and  _336
REMARK  137  A    between atoms: _338  and  _340
REMARK  138  A    between atoms: _340  and  _341
REMARK  139  A    between atoms: _340  and  _343
REMARK  140  A    between atoms: _343  and  _344
REMARK  141  A    between atoms: _346  and  _348
REMARK  142  A    between atoms: _348  and  _349
REMARK  143  A    between atoms: _352  and  _354
REMARK  144  A    between atoms: _354  and  _355
REMARK  145  A    between atoms: _354  and  _357
REMARK  146  A    between atoms: _357  and  _358
REMARK  147  A    between atoms: _361  and  _363
REMARK  148  A    between atoms: _363  and  _364
REMARK  149  A    between atoms: _363  and  _366
REMARK  150  A    between atoms: _366  and  _367
REMARK  151  A    between atoms: _367  and  _368
REMARK  152  A    between atoms: _371  and  _373
REMARK  153  A    between atoms: _373  and  _374
REMARK  154  A    between atoms: _373  and  _376
REMARK  155  A    between atoms: _376  and  _377
REMARK  156  A    between atoms: _380  and  _382
REMARK  157  A    between atoms: _382  and  _383
REMARK  158  A    between atoms: _385  and  _387
REMARK  159  A    between atoms: _387  and  _388
REMARK  160  A    between atoms: _387  and  _390
REMARK  161  A    between atoms: _390  and  _391
REMARK  162  A    between atoms: _391  and  _392
REMARK  163  A    between atoms: _395  and  _397
REMARK  164  A    between atoms: _397  and  _398
REMARK  165  A    between atoms: _397  and  _400
REMARK  166  A    between atoms: _400  and  _401
REMARK  167  A    between atoms: _401  and  _402
REMARK  168  A    between atoms: _405  and  _407
REMARK  169  A    between atoms: _407  and  _408
REMARK  170  A    between atoms: _407  and  _410
REMARK  171  A    between atoms: _410  and  _411
REMARK  172  A    between atoms: _411  and  _412
REMARK  173  A    between atoms: _417  and  _419
REMARK  174  A    between atoms: _419  and  _420
REMARK  175  A    between atoms: _419  and  _422
REMARK  176  A    between atoms: _422  and  _423
REMARK  177  A    between atoms: _423  and  _424
REMARK  178  A    between atoms: _429  and  _431
REMARK  179  A    between atoms: _431  and  _432
REMARK  180  A    between atoms: _431  and  _434
REMARK  181  A    between atoms: _434  and  _435
REMARK  182  A    between atoms: _435  and  _436
REMARK  183  A    between atoms: _436  and  _437
REMARK  184  A    between atoms: _446  and  _448
REMARK  185  A    between atoms: _448  and  _449
REMARK  186  A    between atoms: _448  and  _451
REMARK  187  A    between atoms: _451  and  _452
REMARK  188  A    between atoms: _457  and  _458
REMARK  189  A    between atoms: _460  and  _462
REMARK  190  A    between atoms: _462  and  _463
REMARK  191  A    between atoms: _462  and  _465
REMARK  192  A    between atoms: _465  and  _466
REMARK  193  A    between atoms: _466  and  _467
REMARK  194  A    between atoms: _467  and  _468
REMARK  195  A    between atoms: _468  and  _469
REMARK  196  A    between atoms: _473  and  _475
REMARK  197  A    between atoms: _475  and  _476
REMARK  198  A    between atoms: _475  and  _478
REMARK  199  A    between atoms: _478  and  _479
REMARK  200  A    between atoms: _482  and  _484
REMARK  201  A    between atoms: _484  and  _485
REMARK  202  A    between atoms: _487  and  _489
REMARK  203  A    between atoms: _489  and  _490
REMARK  204  A    between atoms: _489  and  _492
REMARK  205  A    between atoms: _492  and  _493
REMARK  206  A    between atoms: _496  and  _498
REMARK  207  A    between atoms: _498  and  _499
REMARK  208  A    between atoms: _498  and  _501
REMARK  209  A    between atoms: _501  and  _502
REMARK  210  A    between atoms: _502  and  _503
REMARK  211  A    between atoms: _503  and  _504
REMARK  212  A    between atoms: _513  and  _515
REMARK  213  A    between atoms: _515  and  _516
REMARK  214  A    between atoms: _515  and  _518
REMARK  215  A    between atoms: _518  and  _519
REMARK  216  A    between atoms: _519  and  _520
REMARK  217  A    between atoms: _523  and  _525
REMARK  218  A    between atoms: _525  and  _526
REMARK  219  A    between atoms: _525  and  _528
REMARK  220  A    between atoms: _528  and  _529
REMARK  221  A    between atoms: _529  and  _530
REMARK  222  A    between atoms: _530  and  _531
REMARK  223  A    between atoms: _540  and  _542
REMARK  224  A    between atoms: _542  and  _543
REMARK  225  A    between atoms: _542  and  _545
REMARK  226  A    between atoms: _548  and  _550
REMARK  227  A    between atoms: _550  and  _551
REMARK  228  A    between atoms: _550  and  _553
REMARK  229  A    between atoms: _553  and  _554
REMARK  230  A    between atoms: _554  and  _555
REMARK  231  A    between atoms: _558  and  _560
REMARK  232  A    between atoms: _560  and  _561
REMARK  233  A    between atoms: _560  and  _563
REMARK  234  A    between atoms: _563  and  _564
REMARK  235  A    between atoms: _567  and  _569
REMARK  236  A    between atoms: _569  and  _570
REMARK  237  A    between atoms: _569  and  _572
REMARK  238  A    between atoms: _572  and  _573
REMARK  239  A    between atoms: _573  and  _574
REMARK  240  A    between atoms: _577  and  _579
REMARK  241  A    between atoms: _579  and  _580
REMARK  242  A    between atoms: _579  and  _582
REMARK  243  A    between atoms: _582  and  _583
REMARK  244  A    between atoms: _583  and  _584
REMARK  245  A    between atoms: _589  and  _591
REMARK  246  A    between atoms: _591  and  _592
REMARK  247  A    between atoms: _594  and  _596
REMARK  248  A    between atoms: _596  and  _597
REMARK  249  A    between atoms: _596  and  _599
REMARK  250  A    between atoms: _599  and  _600
REMARK  251  A    between atoms: _600  and  _601
REMARK  252  A    between atoms: _606  and  _608
REMARK  253  A    between atoms: _608  and  _609
REMARK  254  A    between atoms: _608  and  _611
REMARK  255  A    between atoms: _611  and  _612
REMARK  256  A    between atoms: _615  and  _617
REMARK  257  A    between atoms: _617  and  _618
REMARK  258  A    between atoms: _617  and  _620
REMARK  259  A    between atoms: _620  and  _621
REMARK  260  A    between atoms: _627  and  _629
REMARK  261  A    between atoms: _629  and  _630
REMARK  262  A    between atoms: _632  and  _634
REMARK  263  A    between atoms: _634  and  _635
REMARK  264  A    between atoms: _634  and  _637
REMARK  265  A    between atoms: _637  and  _638
REMARK  266  A    between atoms: _638  and  _639
REMARK  267  A    between atoms: _643  and  _644
REMARK                            x       y       z     vdW  Elec       q    Type
REMARK                         _______ _______ _______ _____ _____    ______ ____
ROOT
ATOM      1  CA  ARG A   2      30.351  27.013  -0.160  0.00  0.00    +0.137 C 
ENDROOT
BRANCH   1   4
ATOM      2  C   GLN A   1      30.279  25.900   2.012  0.00  0.00    +0.238 C 
ATOM      3  O   GLN A   1      31.356  25.345   1.820  0.00  0.00    -0.274 OA
ATOM      4  N   ARG A   2      29.734  26.737   1.140  0.00  0.00    -0.298 N 
ATOM      5  H   ARG A   2      28.842  27.212   1.386  0.00  0.00    +0.150 HD
BRANCH   2   6
ATOM      6  CA  GLN A   1      29.486  25.631   3.279  0.00  0.00    +0.145 C 
BRANCH   6   7
ATOM      7  N   GLN A   1      30.092  24.567   4.081  0.00  0.00    -0.238 NA
ATOM      8  H   GLN A   1      31.117  24.567   4.257  0.00  0.00    +0.142 HD
ENDBRANCH   6   7
BRANCH   6   9
ATOM      9  CB  GLN A   1      29.273  26.920   4.093  0.00  0.00    +0.036 C 
BRANCH   9  10
ATOM     10  CG  GLN A   1      30.504  27.801   4.235  0.00  0.00    +0.087 C 
BRANCH  10  11
ATOM     11  CD  GLN A   1      30.155  29.219   4.667  0.00  0.00    +0.219 C 
ATOM     12  OE1 GLN A   1      30.812  29.790   5.534  0.00  0.00    -0.275 OA
ATOM     13  NE2 GLN A   1      29.103  29.786   4.076  0.00  0.00    -0.329 N 
ATOM     14 HE21 GLN A   1      28.811  30.747   4.345  0.00  0.00    +0.145 HD
ATOM     15 HE22 GLN A   1      28.574  29.267   3.346  0.00  0.00    +0.145 HD
ENDBRANCH  10  11
ENDBRANCH   9  10
ENDBRANCH   6   9
ENDBRANCH   2   6
ENDBRANCH   1   4
BRANCH   1  16
ATOM     16  C   ARG A   2      30.626  25.731  -0.940  0.00  0.00    +0.227 C 
ATOM     17  O   ARG A   2      31.532  25.665  -1.772  0.00  0.00    -0.286 OA
ENDBRANCH   1  16
BRANCH   1  18
ATOM     18  CB  ARG A   2      31.614  27.881  -0.017  0.00  0.00    +0.031 C 
BRANCH  18  19
ATOM     19  CG  ARG A   2      31.314  29.390   0.173  0.00  0.00    +0.045 C 
BRANCH  19  20
ATOM     20  CD  ARG A   2      32.598  30.275   0.170  0.00  0.00    +0.174 C 
BRANCH  20  21
ATOM     21  NE  ARG A   2      33.402  30.027   1.362  0.00  0.00    -0.265 N 
ATOM     22  CZ  ARG A   2      33.153  30.559   2.553  0.00  0.00    +0.342 C 
ATOM     23  NH2 ARG A   2      33.921  30.249   3.589  0.00  0.00    -0.292 N 
ATOM     24 HH21 ARG A   2      33.728  30.665   4.523  0.00  0.00    +0.255 HD
ATOM     25 HH22 ARG A   2      34.717  29.590   3.468  0.00  0.00    +0.255 HD
ATOM     26  NH1 ARG A   2      32.136  31.410   2.703  0.00  0.00    -0.292 N 
ATOM     27 HH11 ARG A   2      31.940  31.827   3.635  0.00  0.00    +0.255 HD
ATOM     28 HH12 ARG A   2      31.539  31.656   1.888  0.00  0.00    +0.255 HD
ATOM     29  HE  ARG A   2      34.222  29.393   1.273  0.00  0.00    +0.259 HD
ENDBRANCH  20  21
ENDBRANCH  19  20
ENDBRANCH  18  19
ENDBRANCH   1  18
TORSDOF 11
REMARK  Name = ../refined-set-2016/3pju/3pju_pocket.pdb
REMARK  267 active torsions:
REMARK  status: ('A' for Active; 'I' for Inactive)
REMARK    1  A    between atoms: _1  and  _3
REMARK    2  A    between atoms: _3  and  _4
REMARK    3  A    between atoms: _3  and  _6
REMARK    4  A    between atoms: _6  and  _7
REMARK    5  A    between atoms: _13  and  _15
REMARK    6  A    between atoms: _15  and  _16
REMARK    7  A    between atoms: _15  and  _18
REMARK    8  A    between atoms: _18  and  _19
REMARK    9  A    between atoms: _19  and  _20
REMARK   10  A    between atoms: _23  and  _25
REMARK   11  A    between atoms: _25  and  _26
REMARK   12  A    between atoms: _25  and  _28
REMARK   13  A    between atoms: _28  and  _29
REMARK   14  A    between atoms: _32  and  _34
REMARK   15  A    between atoms: _34  and  _35
REMARK   16  A    between atoms: _34  and  _37
REMARK   17  A    between atoms: _37  and  _38
REMARK   18  A    between atoms: _44  and  _46
REMARK   19  A    between atoms: _46  and  _47
REMARK   20  A    between atoms: _46  and  _49
REMARK   21  A    between atoms: _49  and  _50
REMARK   22  A    between atoms: _50  and  _51
REMARK   23  A    between atoms: _56  and  _58
REMARK   24  A    between atoms: _58  and  _59
REMARK   25  A    between atoms: _58  and  _61
REMARK   26  A    between atoms: _64  and  _66
REMARK   27  A    between atoms: _66  and  _67
REMARK   28  A    between atoms: _66  and  _69
REMARK   29  A    between atoms: _69  and  _70
REMARK   30  A    between atoms: _70  and  _71
REMARK   31  A    between atoms: _71  and  _72
REMARK   32  A    between atoms: _72  and  _73
REMARK   33  A    between atoms: _77  and  _79
REMARK   34  A    between atoms: _79  and  _80
REMARK   35  A    between atoms: _79  and  _82
REMARK   36  A    between atoms: _85  and  _87
REMARK   37  A    between atoms: _87  and  _88
REMARK   38  A    between atoms: _87  and  _90
REMARK   39  A    between atoms: _90  and  _91
REMARK   40  A    between atoms: _94  and  _96
REMARK   41  A    between atoms: _96  and  _97
REMARK   42  A    between atoms: _96  and  _99
REMARK   43  A    between atoms: _99  and  _100
REMARK   44  A    between atoms: _102  and  _104
REMARK   45  A    between atoms: _104  and  _105
REMARK   46  A    between atoms: _104  and  _107
REMARK   47  A    between atoms: _107  and  _108
REMARK   48  A    between atoms: _108  and  _109
REMARK   49  A    between atoms: _109  and  _110
REMARK   50  A    between atoms: _119  and  _121
REMARK   51  A    between atoms: _121  and  _122
REMARK   52  A    between atoms: _121  and  _124
REMARK   53  A    between atoms: _124  and  _125
REMARK   54  A    between atoms: _129  and  _130
REMARK   55  A    between atoms: _135  and  _137
REMARK   56  A    between atoms: _137  and  _138
REMARK   57  A    between atoms: _141  and  _143
REMARK   58  A    between atoms: _143  and  _144
REMARK   59  A    between atoms: _146  and  _148
REMARK   60  A    between atoms: _148  and  _149
REMARK   61  A    between atoms: _148  and  _151
REMARK   62  A    between atoms: _151  and  _152
REMARK   63  A    between atoms: _152  and  _153
REMARK   64  A    between atoms: _153  and  _154
REMARK   65  A    between atoms: _163  and  _165
REMARK   66  A    between atoms: _165  and  _166
REMARK   67  A    between atoms: _165  and  _168
REMARK   68  A    between atoms: _168  and  _169
REMARK   69  A    between atoms: _175  and  _177
REMARK   70  A    between atoms: _177  and  _178
REMARK   71  A    between atoms: _177  and  _180
REMARK   72  A    between atoms: _180  and  _181
REMARK   73  A    between atoms: _185  and  _186
REMARK   74  A    between atoms: _191  and  _193
REMARK   75  A    between atoms: _193  and  _194
REMARK   76  A    between atoms: _193  and  _196
REMARK   77  A    between atoms: _196  and  _197
REMARK   78  A    between atoms: _200  and  _202
REMARK   79  A    between atoms: _202  and  _203
REMARK   80  A    between atoms: _202  and  _205
REMARK   81  A    between atoms: _205  and  _206
REMARK   82  A    between atoms: _206  and  _207
REMARK   83  A    between atoms: _210  and  _212
REMARK   84  A    between atoms: _212  and  _213
REMARK   85  A    between atoms: _212  and  _215
REMARK   86  A    between atoms: _215  and  _216
REMARK   87  A    between atoms: _219  and  _221
REMARK   88  A    between atoms: _221  and  _222
REMARK   89  A    between atoms: _225  and  _227
REMARK   90  A    between atoms: _227  and  _228
REMARK   91  A    between atoms: _227  and  _230
REMARK   92  A    between atoms: _230  and  _231
REMARK   93  A    between atoms: _234  and  _236
REMARK   94  A    between atoms: _236  and  _237
REMARK   95  A    between atoms: _236  and  _239
REMARK   96  A    between atoms: _239  and  _240
REMARK   97  A    between atoms: _243  and  _245
REMARK   98  A    between atoms: _245  and  _246
REMARK   99  A    between atoms: _245  and  _248
REMARK  100  A    between atoms: _248  and  _249
REMARK  101  A    between atoms: _249  and  _250
REMARK  102  A    between atoms: _250  and  _251
REMARK  103  A    between atoms: _260  and  _262
REMARK  104  A    between atoms: _262  and  _263
REMARK  105  A    between atoms: _262  and  _265
REMARK  106  A    between atoms: _265  and  _266
REMARK  107  A    between atoms: _269  and  _271
REMARK  108  A    between atoms: _271  and  _272
REMARK  109  A    between atoms: _271  and  _274
REMARK  110  A    between atoms: _274  and  _275
REMARK  111  A    between atoms: _275  and  _276
REMARK  112  A    between atoms: _278  and  _280
REMARK  113  A    between atoms: _280  and  _281
REMARK  114  A    between atoms: _280  and  _283
REMARK  115  A    between atoms: _283  and  _284
REMARK  116  A    between atoms: _287  and  _289
REMARK  117  A    between atoms: _289  and  _290
REMARK  118  A    between atoms: _289  and  _292
REMARK  119  A    between atoms: _295  and  _297
REMARK  120  A    between atoms: _297  and  _298
REMARK  121  A    between atoms: _301  and  _303
REMARK  122  A    between atoms: _303  and  _304
REMARK  123  A    between atoms: _303  and  _306
REMARK  124  A    between atoms: _306  and  _307
REMARK  125  A    between atoms: _310  and  _312
REMARK  126  A    between atoms: _312  and  _313
REMARK  127  A    between atoms: _312  and  _315
REMARK  128  A    between atoms: _315  and  _316
REMARK  129  A    between atoms: _321  and  _323
REMARK  130  A    between atoms: _323  and  _324
REMARK  131  A    between atoms: _323  and  _326
REMARK  132  A    between atoms: _326  and  _327
REMARK  133  A    between atoms: _330  and  _332
REMARK  134  A    between atoms: _332  and  _333
REMARK  135  A    between atoms: _332  and  _335
REMARK  136  A    between atoms: _335  and  _336
REMARK  137  A    between atoms: _338  and  _340
REMARK  138  A    between atoms: _340  and  _341
REMARK  139  A    between atoms: _340  and  _343
REMARK  140  A    between atoms: _343  and  _344
REMARK  141  A    between atoms: _346  and  _348
REMARK  142  A    between atoms: _348  and  _349
REMARK  143  A    between atoms: _352  and  _354
REMARK  144  A    between atoms: _354  and  _355
REMARK  145  A    between atoms: _354  and  _357
REMARK  146  A    between atoms: _357  and  _358
REMARK  147  A    between atoms: _361  and  _363
REMARK  148  A    between atoms: _363  and  _364
REMARK  149  A    between atoms: _363  and  _366
REMARK  150  A    between atoms: _366  and  _367
REMARK  151  A    between atoms: _367  and  _368
REMARK  152  A    between atoms: _371  and  _373
REMARK  153  A    between atoms: _373  and  _374
REMARK  154  A    between atoms: _373  and  _376
REMARK  155  A    between atoms: _376  and  _377
REMARK  156  A    between atoms: _380  and  _382
REMARK  157  A    between atoms: _382  and  _383
REMARK  158  A    between atoms: _385  and  _387
REMARK  159  A    between atoms: _387  and  _388
REMARK  160  A    between atoms: _387  and  _390
REMARK  161  A    between atoms: _390  and  _391
REMARK  162  A    between atoms: _391  and  _392
REMARK  163  A    between atoms: _395  and  _397
REMARK  164  A    between atoms: _397  and  _398
REMARK  165  A    between atoms: _397  and  _400
REMARK  166  A    between atoms: _400  and  _401
REMARK  167  A    between atoms: _401  and  _402
REMARK  168  A    between atoms: _405  and  _407
REMARK  169  A    between atoms: _407  and  _408
REMARK  170  A    between atoms: _407  and  _410
REMARK  171  A    between atoms: _410  and  _411
REMARK  172  A    between atoms: _411  and  _412
REMARK  173  A    between atoms: _417  and  _419
REMARK  174  A    between atoms: _419  and  _420
REMARK  175  A    between atoms: _419  and  _422
REMARK  176  A    between atoms: _422  and  _423
REMARK  177  A    between atoms: _423  and  _424
REMARK  178  A    between atoms: _429  and  _431
REMARK  179  A    between atoms: _431  and  _432
REMARK  180  A    between atoms: _431  and  _434
REMARK  181  A    between atoms: _434  and  _435
REMARK  182  A    between atoms: _435  and  _436
REMARK  183  A    between atoms: _436  and  _437
REMARK  184  A    between atoms: _446  and  _448
REMARK  185  A    between atoms: _448  and  _449
REMARK  186  A    between atoms: _448  and  _451
REMARK  187  A    between atoms: _451  and  _452
REMARK  188  A    between atoms: _457  and  _458
REMARK  189  A    between atoms: _460  and  _462
REMARK  190  A    between atoms: _462  and  _463
REMARK  191  A    between atoms: _462  and  _465
REMARK  192  A    between atoms: _465  and  _466
REMARK  193  A    between atoms: _466  and  _467
REMARK  194  A    between atoms: _467  and  _468
REMARK  195  A    between atoms: _468  and  _469
REMARK  196  A    between atoms: _473  and  _475
REMARK  197  A    between atoms: _475  and  _476
REMARK  198  A    between atoms: _475  and  _478
REMARK  199  A    between atoms: _478  and  _479
REMARK  200  A    between atoms: _482  and  _484
REMARK  201  A    between atoms: _484  and  _485
REMARK  202  A    between atoms: _487  and  _489
REMARK  203  A    between atoms: _489  and  _490
REMARK  204  A    between atoms: _489  and  _492
REMARK  205  A    between atoms: _492  and  _493
REMARK  206  A    between atoms: _496  and  _498
REMARK  207  A    between atoms: _498  and  _499
REMARK  208  A    between atoms: _498  and  _501
REMARK  209  A    between atoms: _501  and  _502
REMARK  210  A    between atoms: _502  and  _503
REMARK  211  A    between atoms: _503  and  _504
REMARK  212  A    between atoms: _513  and  _515
REMARK  213  A    between atoms: _515  and  _516
REMARK  214  A    between atoms: _515  and  _518
REMARK  215  A    between atoms: _518  and  _519
REMARK  216  A    between atoms: _519  and  _520
REMARK  217  A    between atoms: _523  and  _525
REMARK  218  A    between atoms: _525  and  _526
REMARK  219  A    between atoms: _525  and  _528
REMARK  220  A    between atoms: _528  and  _529
REMARK  221  A    between atoms: _529  and  _530
REMARK  222  A    between atoms: _530  and  _531
REMARK  223  A    between atoms: _540  and  _542
REMARK  224  A    between atoms: _542  and  _543
REMARK  225  A    between atoms: _542  and  _545
REMARK  226  A    between atoms: _548  and  _550
REMARK  227  A    between atoms: _550  and  _551
REMARK  228  A    between atoms: _550  and  _553
REMARK  229  A    between atoms: _553  and  _554
REMARK  230  A    between atoms: _554  and  _555
REMARK  231  A    between atoms: _558  and  _560
REMARK  232  A    between atoms: _560  and  _561
REMARK  233  A    between atoms: _560  and  _563
REMARK  234  A    between atoms: _563  and  _564
REMARK  235  A    between atoms: _567  and  _569
REMARK  236  A    between atoms: _569  and  _570
REMARK  237  A    between atoms: _569  and  _572
REMARK  238  A    between atoms: _572  and  _573
REMARK  239  A    between atoms: _573  and  _574
REMARK  240  A    between atoms: _577  and  _579
REMARK  241  A    between atoms: _579  and  _580
REMARK  242  A    between atoms: _579  and  _582
REMARK  243  A    between atoms: _582  and  _583
REMARK  244  A    between atoms: _583  and  _584
REMARK  245  A    between atoms: _589  and  _591
REMARK  246  A    between atoms: _591  and  _592
REMARK  247  A    between atoms: _594  and  _596
REMARK  248  A    between atoms: _596  and  _597
REMARK  249  A    between atoms: _596  and  _599
REMARK  250  A    between atoms: _599  and  _600
REMARK  251  A    between atoms: _600  and  _601
REMARK  252  A    between atoms: _606  and  _608
REMARK  253  A    between atoms: _608  and  _609
REMARK  254  A    between atoms: _608  and  _611
REMARK  255  A    between atoms: _611  and  _612
REMARK  256  A    between atoms: _615  and  _617
REMARK  257  A    between atoms: _617  and  _618
REMARK  258  A    between atoms: _617  and  _620
REMARK  259  A    between atoms: _620  and  _621
REMARK  260  A    between atoms: _627  and  _629
REMARK  261  A    between atoms: _629  and  _630
REMARK  262  A    between atoms: _632  and  _634
REMARK  263  A    between atoms: _634  and  _635
REMARK  264  A    between atoms: _634  and  _637
REMARK  265  A    between atoms: _637  and  _638
REMARK  266  A    between atoms: _638  and  _639
REMARK  267  A    between atoms: _643  and  _644
REMARK                            x       y       z     vdW  Elec       q    Type
REMARK                         _______ _______ _______ _____ _____    ______ ____
ROOT
ATOM      1  CG  TYR A   1      22.943  22.895   7.257  0.00  0.00    -0.020 A 
ATOM      2  CD2 TYR A   1      22.575  23.121   8.578  0.00  0.00    -0.001 A 
ATOM      3  CE2 TYR A   1      23.175  24.123   9.324  0.00  0.00    +0.036 A 
ATOM      4  CZ  TYR A   1      24.148  24.909   8.740  0.00  0.00    +0.134 A 
ATOM      5  CE1 TYR A   1      24.520  24.704   7.434  0.00  0.00    +0.036 A 
ATOM      6  CD1 TYR A   1      23.929  23.700   6.705  0.00  0.00    -0.001 A 
ENDROOT
BRANCH   4   7
ATOM      7  OH  TYR A   1      24.754  25.920   9.456  0.00  0.00    -0.506 OA
ATOM      8  HH  TYR A   1      25.421  26.375   8.883  0.00  0.00    +0.292 HD
ENDBRANCH   4   7
BRANCH   1   9
ATOM      9  CB  TYR A   1      22.315  21.779   6.450  0.00  0.00    +0.051 C 
BRANCH   9  10
ATOM     10  CA  TYR A   1      23.222  20.543   6.378  0.00  0.00    +0.137 C 
BRANCH  10  11
ATOM     11  N   TYR A   1      23.667  20.157   7.720  0.00  0.00    -0.239 NA
ATOM     12  H   TYR A   1      24.653  20.332   8.000  0.00  0.00    +0.142 HD
ENDBRANCH  10  11
BRANCH  10  13
ATOM     13  C   TYR A   1      24.440  20.825   5.489  0.00  0.00    +0.224 C 
ATOM     14  O   TYR A   1      25.575  20.779   5.959  0.00  0.00    -0.287 OA
ENDBRANCH  10  13
ENDBRANCH   9  10
ENDBRANCH   1   9
TORSDOF 5
REMARK  Name = ../refined-set-2016/3pju/3pju_pocket.pdb
REMARK  267 active torsions:
REMARK  status: ('A' for Active; 'I' for Inactive)
REMARK    1  A    between atoms: _1  and  _3
REMARK    2  A    between atoms: _3  and  _4
REMARK    3  A    between atoms: _3  and  _6
REMARK    4  A    between atoms: _6  and  _7
REMARK    5  A    between atoms: _13  and  _15
REMARK    6  A    between atoms: _15  and  _16
REMARK    7  A    between atoms: _15  and  _18
REMARK    8  A    between atoms: _18  and  _19
REMARK    9  A    between atoms: _19  and  _20
REMARK   10  A    between atoms: _23  and  _25
REMARK   11  A    between atoms: _25  and  _26
REMARK   12  A    between atoms: _25  and  _28
REMARK   13  A    between atoms: _28  and  _29
REMARK   14  A    between atoms: _32  and  _34
REMARK   15  A    between atoms: _34  and  _35
REMARK   16  A    between atoms: _34  and  _37
REMARK   17  A    between atoms: _37  and  _38
REMARK   18  A    between atoms: _44  and  _46
REMARK   19  A    between atoms: _46  and  _47
REMARK   20  A    between atoms: _46  and  _49
REMARK   21  A    between atoms: _49  and  _50
REMARK   22  A    between atoms: _50  and  _51
REMARK   23  A    between atoms: _56  and  _58
REMARK   24  A    between atoms: _58  and  _59
REMARK   25  A    between atoms: _58  and  _61
REMARK   26  A    between atoms: _64  and  _66
REMARK   27  A    between atoms: _66  and  _67
REMARK   28  A    between atoms: _66  and  _69
REMARK   29  A    between atoms: _69  and  _70
REMARK   30  A    between atoms: _70  and  _71
REMARK   31  A    between atoms: _71  and  _72
REMARK   32  A    between atoms: _72  and  _73
REMARK   33  A    between atoms: _77  and  _79
REMARK   34  A    between atoms: _79  and  _80
REMARK   35  A    between atoms: _79  and  _82
REMARK   36  A    between atoms: _85  and  _87
REMARK   37  A    between atoms: _87  and  _88
REMARK   38  A    between atoms: _87  and  _90
REMARK   39  A    between atoms: _90  and  _91
REMARK   40  A    between atoms: _94  and  _96
REMARK   41  A    between atoms: _96  and  _97
REMARK   42  A    between atoms: _96  and  _99
REMARK   43  A    between atoms: _99  and  _100
REMARK   44  A    between atoms: _102  and  _104
REMARK   45  A    between atoms: _104  and  _105
REMARK   46  A    between atoms: _104  and  _107
REMARK   47  A    between atoms: _107  and  _108
REMARK   48  A    between atoms: _108  and  _109
REMARK   49  A    between atoms: _109  and  _110
REMARK   50  A    between atoms: _119  and  _121
REMARK   51  A    between atoms: _121  and  _122
REMARK   52  A    between atoms: _121  and  _124
REMARK   53  A    between atoms: _124  and  _125
REMARK   54  A    between atoms: _129  and  _130
REMARK   55  A    between atoms: _135  and  _137
REMARK   56  A    between atoms: _137  and  _138
REMARK   57  A    between atoms: _141  and  _143
REMARK   58  A    between atoms: _143  and  _144
REMARK   59  A    between atoms: _146  and  _148
REMARK   60  A    between atoms: _148  and  _149
REMARK   61  A    between atoms: _148  and  _151
REMARK   62  A    between atoms: _151  and  _152
REMARK   63  A    between atoms: _152  and  _153
REMARK   64  A    between atoms: _153  and  _154
REMARK   65  A    between atoms: _163  and  _165
REMARK   66  A    between atoms: _165  and  _166
REMARK   67  A    between atoms: _165  and  _168
REMARK   68  A    between atoms: _168  and  _169
REMARK   69  A    between atoms: _175  and  _177
REMARK   70  A    between atoms: _177  and  _178
REMARK   71  A    between atoms: _177  and  _180
REMARK   72  A    between atoms: _180  and  _181
REMARK   73  A    between atoms: _185  and  _186
REMARK   74  A    between atoms: _191  and  _193
REMARK   75  A    between atoms: _193  and  _194
REMARK   76  A    between atoms: _193  and  _196
REMARK   77  A    between atoms: _196  and  _197
REMARK   78  A    between atoms: _200  and  _202
REMARK   79  A    between atoms: _202  and  _203
REMARK   80  A    between atoms: _202  and  _205
REMARK   81  A    between atoms: _205  and  _206
REMARK   82  A    between atoms: _206  and  _207
REMARK   83  A    between atoms: _210  and  _212
REMARK   84  A    between atoms: _212  and  _213
REMARK   85  A    between atoms: _212  and  _215
REMARK   86  A    between atoms: _215  and  _216
REMARK   87  A    between atoms: _219  and  _221
REMARK   88  A    between atoms: _221  and  _222
REMARK   89  A    between atoms: _225  and  _227
REMARK   90  A    between atoms: _227  and  _228
REMARK   91  A    between atoms: _227  and  _230
REMARK   92  A    between atoms: _230  and  _231
REMARK   93  A    between atoms: _234  and  _236
REMARK   94  A    between atoms: _236  and  _237
REMARK   95  A    between atoms: _236  and  _239
REMARK   96  A    between atoms: _239  and  _240
REMARK   97  A    between atoms: _243  and  _245
REMARK   98  A    between atoms: _245  and  _246
REMARK   99  A    between atoms: _245  and  _248
REMARK  100  A    between atoms: _248  and  _249
REMARK  101  A    between atoms: _249  and  _250
REMARK  102  A    between atoms: _250  and  _251
REMARK  103  A    between atoms: _260  and  _262
REMARK  104  A    between atoms: _262  and  _263
REMARK  105  A    between atoms: _262  and  _265
REMARK  106  A    between atoms: _265  and  _266
REMARK  107  A    between atoms: _269  and  _271
REMARK  108  A    between atoms: _271  and  _272
REMARK  109  A    between atoms: _271  and  _274
REMARK  110  A    between atoms: _274  and  _275
REMARK  111  A    between atoms: _275  and  _276
REMARK  112  A    between atoms: _278  and  _280
REMARK  113  A    between atoms: _280  and  _281
REMARK  114  A    between atoms: _280  and  _283
REMARK  115  A    between atoms: _283  and  _284
REMARK  116  A    between atoms: _287  and  _289
REMARK  117  A    between atoms: _289  and  _290
REMARK  118  A    between atoms: _289  and  _292
REMARK  119  A    between atoms: _295  and  _297
REMARK  120  A    between atoms: _297  and  _298
REMARK  121  A    between atoms: _301  and  _303
REMARK  122  A    between atoms: _303  and  _304
REMARK  123  A    between atoms: _303  and  _306
REMARK  124  A    between atoms: _306  and  _307
REMARK  125  A    between atoms: _310  and  _312
REMARK  126  A    between atoms: _312  and  _313
REMARK  127  A    between atoms: _312  and  _315
REMARK  128  A    between atoms: _315  and  _316
REMARK  129  A    between atoms: _321  and  _323
REMARK  130  A    between atoms: _323  and  _324
REMARK  131  A    between atoms: _323  and  _326
REMARK  132  A    between atoms: _326  and  _327
REMARK  133  A    between atoms: _330  and  _332
REMARK  134  A    between atoms: _332  and  _333
REMARK  135  A    between atoms: _332  and  _335
REMARK  136  A    between atoms: _335  and  _336
REMARK  137  A    between atoms: _338  and  _340
REMARK  138  A    between atoms: _340  and  _341
REMARK  139  A    between atoms: _340  and  _343
REMARK  140  A    between atoms: _343  and  _344
REMARK  141  A    between atoms: _346  and  _348
REMARK  142  A    between atoms: _348  and  _349
REMARK  143  A    between atoms: _352  and  _354
REMARK  144  A    between atoms: _354  and  _355
REMARK  145  A    between atoms: _354  and  _357
REMARK  146  A    between atoms: _357  and  _358
REMARK  147  A    between atoms: _361  and  _363
REMARK  148  A    between atoms: _363  and  _364
REMARK  149  A    between atoms: _363  and  _366
REMARK  150  A    between atoms: _366  and  _367
REMARK  151  A    between atoms: _367  and  _368
REMARK  152  A    between atoms: _371  and  _373
REMARK  153  A    between atoms: _373  and  _374
REMARK  154  A    between atoms: _373  and  _376
REMARK  155  A    between atoms: _376  and  _377
REMARK  156  A    between atoms: _380  and  _382
REMARK  157  A    between atoms: _382  and  _383
REMARK  158  A    between atoms: _385  and  _387
REMARK  159  A    between atoms: _387  and  _388
REMARK  160  A    between atoms: _387  and  _390
REMARK  161  A    between atoms: _390  and  _391
REMARK  162  A    between atoms: _391  and  _392
REMARK  163  A    between atoms: _395  and  _397
REMARK  164  A    between atoms: _397  and  _398
REMARK  165  A    between atoms: _397  and  _400
REMARK  166  A    between atoms: _400  and  _401
REMARK  167  A    between atoms: _401  and  _402
REMARK  168  A    between atoms: _405  and  _407
REMARK  169  A    between atoms: _407  and  _408
REMARK  170  A    between atoms: _407  and  _410
REMARK  171  A    between atoms: _410  and  _411
REMARK  172  A    between atoms: _411  and  _412
REMARK  173  A    between atoms: _417  and  _419
REMARK  174  A    between atoms: _419  and  _420
REMARK  175  A    between atoms: _419  and  _422
REMARK  176  A    between atoms: _422  and  _423
REMARK  177  A    between atoms: _423  and  _424
REMARK  178  A    between atoms: _429  and  _431
REMARK  179  A    between atoms: _431  and  _432
REMARK  180  A    between atoms: _431  and  _434
REMARK  181  A    between atoms: _434  and  _435
REMARK  182  A    between atoms: _435  and  _436
REMARK  183  A    between atoms: _436  and  _437
REMARK  184  A    between atoms: _446  and  _448
REMARK  185  A    between atoms: _448  and  _449
REMARK  186  A    between atoms: _448  and  _451
REMARK  187  A    between atoms: _451  and  _452
REMARK  188  A    between atoms: _457  and  _458
REMARK  189  A    between atoms: _460  and  _462
REMARK  190  A    between atoms: _462  and  _463
REMARK  191  A    between atoms: _462  and  _465
REMARK  192  A    between atoms: _465  and  _466
REMARK  193  A    between atoms: _466  and  _467
REMARK  194  A    between atoms: _467  and  _468
REMARK  195  A    between atoms: _468  and  _469
REMARK  196  A    between atoms: _473  and  _475
REMARK  197  A    between atoms: _475  and  _476
REMARK  198  A    between atoms: _475  and  _478
REMARK  199  A    between atoms: _478  and  _479
REMARK  200  A    between atoms: _482  and  _484
REMARK  201  A    between atoms: _484  and  _485
REMARK  202  A    between atoms: _487  and  _489
REMARK  203  A    between atoms: _489  and  _490
REMARK  204  A    between atoms: _489  and  _492
REMARK  205  A    between atoms: _492  and  _493
REMARK  206  A    between atoms: _496  and  _498
REMARK  207  A    between atoms: _498  and  _499
REMARK  208  A    between atoms: _498  and  _501
REMARK  209  A    between atoms: _501  and  _502
REMARK  210  A    between atoms: _502  and  _503
REMARK  211  A    between atoms: _503  and  _504
REMARK  212  A    between atoms: _513  and  _515
REMARK  213  A    between atoms: _515  and  _516
REMARK  214  A    between atoms: _515  and  _518
REMARK  215  A    between atoms: _518  and  _519
REMARK  216  A    between atoms: _519  and  _520
REMARK  217  A    between atoms: _523  and  _525
REMARK  218  A    between atoms: _525  and  _526
REMARK  219  A    between atoms: _525  and  _528
REMARK  220  A    between atoms: _528  and  _529
REMARK  221  A    between atoms: _529  and  _530
REMARK  222  A    between atoms: _530  and  _531
REMARK  223  A    between atoms: _540  and  _542
REMARK  224  A    between atoms: _542  and  _543
REMARK  225  A    between atoms: _542  and  _545
REMARK  226  A    between atoms: _548  and  _550
REMARK  227  A    between atoms: _550  and  _551
REMARK  228  A    between atoms: _550  and  _553
REMARK  229  A    between atoms: _553  and  _554
REMARK  230  A    between atoms: _554  and  _555
REMARK  231  A    between atoms: _558  and  _560
REMARK  232  A    between atoms: _560  and  _561
REMARK  233  A    between atoms: _560  and  _563
REMARK  234  A    between atoms: _563  and  _564
REMARK  235  A    between atoms: _567  and  _569
REMARK  236  A    between atoms: _569  and  _570
REMARK  237  A    between atoms: _569  and  _572
REMARK  238  A    between atoms: _572  and  _573
REMARK  239  A    between atoms: _573  and  _574
REMARK  240  A    between atoms: _577  and  _579
REMARK  241  A    between atoms: _579  and  _580
REMARK  242  A    between atoms: _579  and  _582
REMARK  243  A    between atoms: _582  and  _583
REMARK  244  A    between atoms: _583  and  _584
REMARK  245  A    between atoms: _589  and  _591
REMARK  246  A    between atoms: _591  and  _592
REMARK  247  A    between atoms: _594  and  _596
REMARK  248  A    between atoms: _596  and  _597
REMARK  249  A    between atoms: _596  and  _599
REMARK  250  A    between atoms: _599  and  _600
REMARK  251  A    between atoms: _600  and  _601
REMARK  252  A    between atoms: _606  and  _608
REMARK  253  A    between atoms: _608  and  _609
REMARK  254  A    between atoms: _608  and  _611
REMARK  255  A    between atoms: _611  and  _612
REMARK  256  A    between atoms: _615  and  _617
REMARK  257  A    between atoms: _617  and  _618
REMARK  258  A    between atoms: _617  and  _620
REMARK  259  A    between atoms: _620  and  _621
REMARK  260  A    between atoms: _627  and  _629
REMARK  261  A    between atoms: _629  and  _630
REMARK  262  A    between atoms: _632  and  _634
REMARK  263  A    between atoms: _634  and  _635
REMARK  264  A    between atoms: _634  and  _637
REMARK  265  A    between atoms: _637  and  _638
REMARK  266  A    between atoms: _638  and  _639
REMARK  267  A    between atoms: _643  and  _644
REMARK                            x       y       z     vdW  Elec       q    Type
REMARK                         _______ _______ _______ _____ _____    ______ ____
ROOT
ATOM      1  CG  LYS A   1      24.793  26.666   3.969  0.00  0.00    -0.000 C 
ENDROOT
BRANCH   1   2
ATOM      2  CB  LYS A   1      25.860  26.311   2.950  0.00  0.00    +0.025 C 
BRANCH   2   3
ATOM      3  CA  LYS A   1      25.433  25.109   2.109  0.00  0.00    +0.133 C 
BRANCH   3   4
ATOM      4  N   LYS A   1      25.667  23.847   2.811  0.00  0.00    -0.239 NA
ATOM      5  H   LYS A   1      26.491  23.754   3.439  0.00  0.00    +0.142 HD
ENDBRANCH   3   4
BRANCH   3   6
ATOM      6  C   LYS A   1      26.087  25.124   0.737  0.00  0.00    +0.224 C 
ATOM      7  O   LYS A   1      27.293  24.896   0.611  0.00  0.00    -0.287 OA
ENDBRANCH   3   6
ENDBRANCH   2   3
ENDBRANCH   1   2
BRANCH   1   8
ATOM      8  CD  LYS A   1      25.175  27.788   4.894  0.00  0.00    -0.024 C 
BRANCH   8   9
ATOM      9  CE  LYS A   1      24.063  27.992   5.896  0.00  0.00    -0.086 C 
BRANCH   9  10
ATOM     10  NZ  LYS A   1      24.454  28.808   7.076  0.00  0.00    +0.380 N 
ATOM     11  HZ1 LYS A   1      23.639  28.903   7.716  0.00  0.00    -0.089 HD
ATOM     12  HZ2 LYS A   1      25.236  28.340   7.576  0.00  0.00    -0.089 HD
ATOM     13  HZ3 LYS A   1      24.759  29.750   6.759  0.00  0.00    -0.089 HD
ENDBRANCH   9  10
ENDBRANCH   8   9
ENDBRANCH   1   8
TORSDOF 7
REMARK  Name = ../refined-set-2016/3pju/3pju_pocket.pdb
REMARK  267 active torsions:
REMARK  status: ('A' for Active; 'I' for Inactive)
REMARK    1  A    between atoms: _1  and  _3
REMARK    2  A    between atoms: _3  and  _4
REMARK    3  A    between atoms: _3  and  _6
REMARK    4  A    between atoms: _6  and  _7
REMARK    5  A    between atoms: _13  and  _15
REMARK    6  A    between atoms: _15  and  _16
REMARK    7  A    between atoms: _15  and  _18
REMARK    8  A    between atoms: _18  and  _19
REMARK    9  A    between atoms: _19  and  _20
REMARK   10  A    between atoms: _23  and  _25
REMARK   11  A    between atoms: _25  and  _26
REMARK   12  A    between atoms: _25  and  _28
REMARK   13  A    between atoms: _28  and  _29
REMARK   14  A    between atoms: _32  and  _34
REMARK   15  A    between atoms: _34  and  _35
REMARK   16  A    between atoms: _34  and  _37
REMARK   17  A    between atoms: _37  and  _38
REMARK   18  A    between atoms: _44  and  _46
REMARK   19  A    between atoms: _46  and  _47
REMARK   20  A    between atoms: _46  and  _49
REMARK   21  A    between atoms: _49  and  _50
REMARK   22  A    between atoms: _50  and  _51
REMARK   23  A    between atoms: _56  and  _58
REMARK   24  A    between atoms: _58  and  _59
REMARK   25  A    between atoms: _58  and  _61
REMARK   26  A    between atoms: _64  and  _66
REMARK   27  A    between atoms: _66  and  _67
REMARK   28  A    between atoms: _66  and  _69
REMARK   29  A    between atoms: _69  and  _70
REMARK   30  A    between atoms: _70  and  _71
REMARK   31  A    between atoms: _71  and  _72
REMARK   32  A    between atoms: _72  and  _73
REMARK   33  A    between atoms: _77  and  _79
REMARK   34  A    between atoms: _79  and  _80
REMARK   35  A    between atoms: _79  and  _82
REMARK   36  A    between atoms: _85  and  _87
REMARK   37  A    between atoms: _87  and  _88
REMARK   38  A    between atoms: _87  and  _90
REMARK   39  A    between atoms: _90  and  _91
REMARK   40  A    between atoms: _94  and  _96
REMARK   41  A    between atoms: _96  and  _97
REMARK   42  A    between atoms: _96  and  _99
REMARK   43  A    between atoms: _99  and  _100
REMARK   44  A    between atoms: _102  and  _104
REMARK   45  A    between atoms: _104  and  _105
REMARK   46  A    between atoms: _104  and  _107
REMARK   47  A    between atoms: _107  and  _108
REMARK   48  A    between atoms: _108  and  _109
REMARK   49  A    between atoms: _109  and  _110
REMARK   50  A    between atoms: _119  and  _121
REMARK   51  A    between atoms: _121  and  _122
REMARK   52  A    between atoms: _121  and  _124
REMARK   53  A    between atoms: _124  and  _125
REMARK   54  A    between atoms: _129  and  _130
REMARK   55  A    between atoms: _135  and  _137
REMARK   56  A    between atoms: _137  and  _138
REMARK   57  A    between atoms: _141  and  _143
REMARK   58  A    between atoms: _143  and  _144
REMARK   59  A    between atoms: _146  and  _148
REMARK   60  A    between atoms: _148  and  _149
REMARK   61  A    between atoms: _148  and  _151
REMARK   62  A    between atoms: _151  and  _152
REMARK   63  A    between atoms: _152  and  _153
REMARK   64  A    between atoms: _153  and  _154
REMARK   65  A    between atoms: _163  and  _165
REMARK   66  A    between atoms: _165  and  _166
REMARK   67  A    between atoms: _165  and  _168
REMARK   68  A    between atoms: _168  and  _169
REMARK   69  A    between atoms: _175  and  _177
REMARK   70  A    between atoms: _177  and  _178
REMARK   71  A    between atoms: _177  and  _180
REMARK   72  A    between atoms: _180  and  _181
REMARK   73  A    between atoms: _185  and  _186
REMARK   74  A    between atoms: _191  and  _193
REMARK   75  A    between atoms: _193  and  _194
REMARK   76  A    between atoms: _193  and  _196
REMARK   77  A    between atoms: _196  and  _197
REMARK   78  A    between atoms: _200  and  _202
REMARK   79  A    between atoms: _202  and  _203
REMARK   80  A    between atoms: _202  and  _205
REMARK   81  A    between atoms: _205  and  _206
REMARK   82  A    between atoms: _206  and  _207
REMARK   83  A    between atoms: _210  and  _212
REMARK   84  A    between atoms: _212  and  _213
REMARK   85  A    between atoms: _212  and  _215
REMARK   86  A    between atoms: _215  and  _216
REMARK   87  A    between atoms: _219  and  _221
REMARK   88  A    between atoms: _221  and  _222
REMARK   89  A    between atoms: _225  and  _227
REMARK   90  A    between atoms: _227  and  _228
REMARK   91  A    between atoms: _227  and  _230
REMARK   92  A    between atoms: _230  and  _231
REMARK   93  A    between atoms: _234  and  _236
REMARK   94  A    between atoms: _236  and  _237
REMARK   95  A    between atoms: _236  and  _239
REMARK   96  A    between atoms: _239  and  _240
REMARK   97  A    between atoms: _243  and  _245
REMARK   98  A    between atoms: _245  and  _246
REMARK   99  A    between atoms: _245  and  _248
REMARK  100  A    between atoms: _248  and  _249
REMARK  101  A    between atoms: _249  and  _250
REMARK  102  A    between atoms: _250  and  _251
REMARK  103  A    between atoms: _260  and  _262
REMARK  104  A    between atoms: _262  and  _263
REMARK  105  A    between atoms: _262  and  _265
REMARK  106  A    between atoms: _265  and  _266
REMARK  107  A    between atoms: _269  and  _271
REMARK  108  A    between atoms: _271  and  _272
REMARK  109  A    between atoms: _271  and  _274
REMARK  110  A    between atoms: _274  and  _275
REMARK  111  A    between atoms: _275  and  _276
REMARK  112  A    between atoms: _278  and  _280
REMARK  113  A    between atoms: _280  and  _281
REMARK  114  A    between atoms: _280  and  _283
REMARK  115  A    between atoms: _283  and  _284
REMARK  116  A    between atoms: _287  and  _289
REMARK  117  A    between atoms: _289  and  _290
REMARK  118  A    between atoms: _289  and  _292
REMARK  119  A    between atoms: _295  and  _297
REMARK  120  A    between atoms: _297  and  _298
REMARK  121  A    between atoms: _301  and  _303
REMARK  122  A    between atoms: _303  and  _304
REMARK  123  A    between atoms: _303  and  _306
REMARK  124  A    between atoms: _306  and  _307
REMARK  125  A    between atoms: _310  and  _312
REMARK  126  A    between atoms: _312  and  _313
REMARK  127  A    between atoms: _312  and  _315
REMARK  128  A    between atoms: _315  and  _316
REMARK  129  A    between atoms: _321  and  _323
REMARK  130  A    between atoms: _323  and  _324
REMARK  131  A    between atoms: _323  and  _326
REMARK  132  A    between atoms: _326  and  _327
REMARK  133  A    between atoms: _330  and  _332
REMARK  134  A    between atoms: _332  and  _333
REMARK  135  A    between atoms: _332  and  _335
REMARK  136  A    between atoms: _335  and  _336
REMARK  137  A    between atoms: _338  and  _340
REMARK  138  A    between atoms: _340  and  _341
REMARK  139  A    between atoms: _340  and  _343
REMARK  140  A    between atoms: _343  and  _344
REMARK  141  A    between atoms: _346  and  _348
REMARK  142  A    between atoms: _348  and  _349
REMARK  143  A    between atoms: _352  and  _354
REMARK  144  A    between atoms: _354  and  _355
REMARK  145  A    between atoms: _354  and  _357
REMARK  146  A    between atoms: _357  and  _358
REMARK  147  A    between atoms: _361  and  _363
REMARK  148  A    between atoms: _363  and  _364
REMARK  149  A    between atoms: _363  and  _366
REMARK  150  A    between atoms: _366  and  _367
REMARK  151  A    between atoms: _367  and  _368
REMARK  152  A    between atoms: _371  and  _373
REMARK  153  A    between atoms: _373  and  _374
REMARK  154  A    between atoms: _373  and  _376
REMARK  155  A    between atoms: _376  and  _377
REMARK  156  A    between atoms: _380  and  _382
REMARK  157  A    between atoms: _382  and  _383
REMARK  158  A    between atoms: _385  and  _387
REMARK  159  A    between atoms: _387  and  _388
REMARK  160  A    between atoms: _387  and  _390
REMARK  161  A    between atoms: _390  and  _391
REMARK  162  A    between atoms: _391  and  _392
REMARK  163  A    between atoms: _395  and  _397
REMARK  164  A    between atoms: _397  and  _398
REMARK  165  A    between atoms: _397  and  _400
REMARK  166  A    between atoms: _400  and  _401
REMARK  167  A    between atoms: _401  and  _402
REMARK  168  A    between atoms: _405  and  _407
REMARK  169  A    between atoms: _407  and  _408
REMARK  170  A    between atoms: _407  and  _410
REMARK  171  A    between atoms: _410  and  _411
REMARK  172  A    between atoms: _411  and  _412
REMARK  173  A    between atoms: _417  and  _419
REMARK  174  A    between atoms: _419  and  _420
REMARK  175  A    between atoms: _419  and  _422
REMARK  176  A    between atoms: _422  and  _423
REMARK  177  A    between atoms: _423  and  _424
REMARK  178  A    between atoms: _429  and  _431
REMARK  179  A    between atoms: _431  and  _432
REMARK  180  A    between atoms: _431  and  _434
REMARK  181  A    between atoms: _434  and  _435
REMARK  182  A    between atoms: _435  and  _436
REMARK  183  A    between atoms: _436  and  _437
REMARK  184  A    between atoms: _446  and  _448
REMARK  185  A    between atoms: _448  and  _449
REMARK  186  A    between atoms: _448  and  _451
REMARK  187  A    between atoms: _451  and  _452
REMARK  188  A    between atoms: _457  and  _458
REMARK  189  A    between atoms: _460  and  _462
REMARK  190  A    between atoms: _462  and  _463
REMARK  191  A    between atoms: _462  and  _465
REMARK  192  A    between atoms: _465  and  _466
REMARK  193  A    between atoms: _466  and  _467
REMARK  194  A    between atoms: _467  and  _468
REMARK  195  A    between atoms: _468  and  _469
REMARK  196  A    between atoms: _473  and  _475
REMARK  197  A    between atoms: _475  and  _476
REMARK  198  A    between atoms: _475  and  _478
REMARK  199  A    between atoms: _478  and  _479
REMARK  200  A    between atoms: _482  and  _484
REMARK  201  A    between atoms: _484  and  _485
REMARK  202  A    between atoms: _487  and  _489
REMARK  203  A    between atoms: _489  and  _490
REMARK  204  A    between atoms: _489  and  _492
REMARK  205  A    between atoms: _492  and  _493
REMARK  206  A    between atoms: _496  and  _498
REMARK  207  A    between atoms: _498  and  _499
REMARK  208  A    between atoms: _498  and  _501
REMARK  209  A    between atoms: _501  and  _502
REMARK  210  A    between atoms: _502  and  _503
REMARK  211  A    between atoms: _503  and  _504
REMARK  212  A    between atoms: _513  and  _515
REMARK  213  A    between atoms: _515  and  _516
REMARK  214  A    between atoms: _515  and  _518
REMARK  215  A    between atoms: _518  and  _519
REMARK  216  A    between atoms: _519  and  _520
REMARK  217  A    between atoms: _523  and  _525
REMARK  218  A    between atoms: _525  and  _526
REMARK  219  A    between atoms: _525  and  _528
REMARK  220  A    between atoms: _528  and  _529
REMARK  221  A    between atoms: _529  and  _530
REMARK  222  A    between atoms: _530  and  _531
REMARK  223  A    between atoms: _540  and  _542
REMARK  224  A    between atoms: _542  and  _543
REMARK  225  A    between atoms: _542  and  _545
REMARK  226  A    between atoms: _548  and  _550
REMARK  227  A    between atoms: _550  and  _551
REMARK  228  A    between atoms: _550  and  _553
REMARK  229  A    between atoms: _553  and  _554
REMARK  230  A    between atoms: _554  and  _555
REMARK  231  A    between atoms: _558  and  _560
REMARK  232  A    between atoms: _560  and  _561
REMARK  233  A    between atoms: _560  and  _563
REMARK  234  A    between atoms: _563  and  _564
REMARK  235  A    between atoms: _567  and  _569
REMARK  236  A    between atoms: _569  and  _570
REMARK  237  A    between atoms: _569  and  _572
REMARK  238  A    between atoms: _572  and  _573
REMARK  239  A    between atoms: _573  and  _574
REMARK  240  A    between atoms: _577  and  _579
REMARK  241  A    between atoms: _579  and  _580
REMARK  242  A    between atoms: _579  and  _582
REMARK  243  A    between atoms: _582  and  _583
REMARK  244  A    between atoms: _583  and  _584
REMARK  245  A    between atoms: _589  and  _591
REMARK  246  A    between atoms: _591  and  _592
REMARK  247  A    between atoms: _594  and  _596
REMARK  248  A    between atoms: _596  and  _597
REMARK  249  A    between atoms: _596  and  _599
REMARK  250  A    between atoms: _599  and  _600
REMARK  251  A    between atoms: _600  and  _601
REMARK  252  A    between atoms: _606  and  _608
REMARK  253  A    between atoms: _608  and  _609
REMARK  254  A    between atoms: _608  and  _611
REMARK  255  A    between atoms: _611  and  _612
REMARK  256  A    between atoms: _615  and  _617
REMARK  257  A    between atoms: _617  and  _618
REMARK  258  A    between atoms: _617  and  _620
REMARK  259  A    between atoms: _620  and  _621
REMARK  260  A    between atoms: _627  and  _629
REMARK  261  A    between atoms: _629  and  _630
REMARK  262  A    between atoms: _632  and  _634
REMARK  263  A    between atoms: _634  and  _635
REMARK  264  A    between atoms: _634  and  _637
REMARK  265  A    between atoms: _637  and  _638
REMARK  266  A    between atoms: _638  and  _639
REMARK  267  A    between atoms: _643  and  _644
REMARK                            x       y       z     vdW  Elec       q    Type
REMARK                         _______ _______ _______ _____ _____    ______ ____
ROOT
ATOM      1  CA  ASP A   1      27.929  28.101  -3.134  0.00  0.00    +0.156 C 
ENDROOT
BRANCH   1   2
ATOM      2  C   ASP A   1      26.931  28.871  -4.008  0.00  0.00    +0.239 C 
ATOM      3  N   GLY A   2      26.882  30.194  -3.829  0.00  0.00    -0.297 N 
ATOM      4  H   GLY A   2      27.550  30.639  -3.167  0.00  0.00    +0.150 HD
ATOM      5  O   ASP A   1      26.221  28.277  -4.830  0.00  0.00    -0.274 OA
BRANCH   3   6
ATOM      6  CA  GLY A   2      25.921  31.031  -4.533  0.00  0.00    +0.163 C 
BRANCH   6   7
ATOM      7  C   GLY A   2      26.068  30.973  -6.040  0.00  0.00    +0.229 C 
ATOM      8  O   GLY A   2      25.098  31.148  -6.774  0.00  0.00    -0.286 OA
ENDBRANCH   6   7
ENDBRANCH   3   6
ENDBRANCH   1   2
BRANCH   1   9
ATOM      9  N   ASP A   1      27.377  26.836  -2.691  0.00  0.00    -0.238 NA
ATOM     10  H   ASP A   1      27.931  25.964  -2.808  0.00  0.00    +0.142 HD
ENDBRANCH   1   9
BRANCH   1  11
ATOM     11  CB  ASP A   1      29.226  27.857  -3.894  0.00  0.00    +0.140 C 
BRANCH  11  12
ATOM     12  CG  ASP A   1      30.034  29.118  -4.066  0.00  0.00    +0.367 C 
ATOM     13  OD2 ASP A   1      30.624  29.586  -3.063  0.00  0.00    -0.246 OA
ATOM     14  OD1 ASP A   1      30.054  29.650  -5.196  0.00  0.00    -0.246 OA
ENDBRANCH  11  12
ENDBRANCH   1  11
TORSDOF 6
REMARK  Name = ../refined-set-2016/3pju/3pju_pocket.pdb
REMARK  267 active torsions:
REMARK  status: ('A' for Active; 'I' for Inactive)
REMARK    1  A    between atoms: _1  and  _3
REMARK    2  A    between atoms: _3  and  _4
REMARK    3  A    between atoms: _3  and  _6
REMARK    4  A    between atoms: _6  and  _7
REMARK    5  A    between atoms: _13  and  _15
REMARK    6  A    between atoms: _15  and  _16
REMARK    7  A    between atoms: _15  and  _18
REMARK    8  A    between atoms: _18  and  _19
REMARK    9  A    between atoms: _19  and  _20
REMARK   10  A    between atoms: _23  and  _25
REMARK   11  A    between atoms: _25  and  _26
REMARK   12  A    between atoms: _25  and  _28
REMARK   13  A    between atoms: _28  and  _29
REMARK   14  A    between atoms: _32  and  _34
REMARK   15  A    between atoms: _34  and  _35
REMARK   16  A    between atoms: _34  and  _37
REMARK   17  A    between atoms: _37  and  _38
REMARK   18  A    between atoms: _44  and  _46
REMARK   19  A    between atoms: _46  and  _47
REMARK   20  A    between atoms: _46  and  _49
REMARK   21  A    between atoms: _49  and  _50
REMARK   22  A    between atoms: _50  and  _51
REMARK   23  A    between atoms: _56  and  _58
REMARK   24  A    between atoms: _58  and  _59
REMARK   25  A    between atoms: _58  and  _61
REMARK   26  A    between atoms: _64  and  _66
REMARK   27  A    between atoms: _66  and  _67
REMARK   28  A    between atoms: _66  and  _69
REMARK   29  A    between atoms: _69  and  _70
REMARK   30  A    between atoms: _70  and  _71
REMARK   31  A    between atoms: _71  and  _72
REMARK   32  A    between atoms: _72  and  _73
REMARK   33  A    between atoms: _77  and  _79
REMARK   34  A    between atoms: _79  and  _80
REMARK   35  A    between atoms: _79  and  _82
REMARK   36  A    between atoms: _85  and  _87
REMARK   37  A    between atoms: _87  and  _88
REMARK   38  A    between atoms: _87  and  _90
REMARK   39  A    between atoms: _90  and  _91
REMARK   40  A    between atoms: _94  and  _96
REMARK   41  A    between atoms: _96  and  _97
REMARK   42  A    between atoms: _96  and  _99
REMARK   43  A    between atoms: _99  and  _100
REMARK   44  A    between atoms: _102  and  _104
REMARK   45  A    between atoms: _104  and  _105
REMARK   46  A    between atoms: _104  and  _107
REMARK   47  A    between atoms: _107  and  _108
REMARK   48  A    between atoms: _108  and  _109
REMARK   49  A    between atoms: _109  and  _110
REMARK   50  A    between atoms: _119  and  _121
REMARK   51  A    between atoms: _121  and  _122
REMARK   52  A    between atoms: _121  and  _124
REMARK   53  A    between atoms: _124  and  _125
REMARK   54  A    between atoms: _129  and  _130
REMARK   55  A    between atoms: _135  and  _137
REMARK   56  A    between atoms: _137  and  _138
REMARK   57  A    between atoms: _141  and  _143
REMARK   58  A    between atoms: _143  and  _144
REMARK   59  A    between atoms: _146  and  _148
REMARK   60  A    between atoms: _148  and  _149
REMARK   61  A    between atoms: _148  and  _151
REMARK   62  A    between atoms: _151  and  _152
REMARK   63  A    between atoms: _152  and  _153
REMARK   64  A    between atoms: _153  and  _154
REMARK   65  A    between atoms: _163  and  _165
REMARK   66  A    between atoms: _165  and  _166
REMARK   67  A    between atoms: _165  and  _168
REMARK   68  A    between atoms: _168  and  _169
REMARK   69  A    between atoms: _175  and  _177
REMARK   70  A    between atoms: _177  and  _178
REMARK   71  A    between atoms: _177  and  _180
REMARK   72  A    between atoms: _180  and  _181
REMARK   73  A    between atoms: _185  and  _186
REMARK   74  A    between atoms: _191  and  _193
REMARK   75  A    between atoms: _193  and  _194
REMARK   76  A    between atoms: _193  and  _196
REMARK   77  A    between atoms: _196  and  _197
REMARK   78  A    between atoms: _200  and  _202
REMARK   79  A    between atoms: _202  and  _203
REMARK   80  A    between atoms: _202  and  _205
REMARK   81  A    between atoms: _205  and  _206
REMARK   82  A    between atoms: _206  and  _207
REMARK   83  A    between atoms: _210  and  _212
REMARK   84  A    between atoms: _212  and  _213
REMARK   85  A    between atoms: _212  and  _215
REMARK   86  A    between atoms: _215  and  _216
REMARK   87  A    between atoms: _219  and  _221
REMARK   88  A    between atoms: _221  and  _222
REMARK   89  A    between atoms: _225  and  _227
REMARK   90  A    between atoms: _227  and  _228
REMARK   91  A    between atoms: _227  and  _230
REMARK   92  A    between atoms: _230  and  _231
REMARK   93  A    between atoms: _234  and  _236
REMARK   94  A    between atoms: _236  and  _237
REMARK   95  A    between atoms: _236  and  _239
REMARK   96  A    between atoms: _239  and  _240
REMARK   97  A    between atoms: _243  and  _245
REMARK   98  A    between atoms: _245  and  _246
REMARK   99  A    between atoms: _245  and  _248
REMARK  100  A    between atoms: _248  and  _249
REMARK  101  A    between atoms: _249  and  _250
REMARK  102  A    between atoms: _250  and  _251
REMARK  103  A    between atoms: _260  and  _262
REMARK  104  A    between atoms: _262  and  _263
REMARK  105  A    between atoms: _262  and  _265
REMARK  106  A    between atoms: _265  and  _266
REMARK  107  A    between atoms: _269  and  _271
REMARK  108  A    between atoms: _271  and  _272
REMARK  109  A    between atoms: _271  and  _274
REMARK  110  A    between atoms: _274  and  _275
REMARK  111  A    between atoms: _275  and  _276
REMARK  112  A    between atoms: _278  and  _280
REMARK  113  A    between atoms: _280  and  _281
REMARK  114  A    between atoms: _280  and  _283
REMARK  115  A    between atoms: _283  and  _284
REMARK  116  A    between atoms: _287  and  _289
REMARK  117  A    between atoms: _289  and  _290
REMARK  118  A    between atoms: _289  and  _292
REMARK  119  A    between atoms: _295  and  _297
REMARK  120  A    between atoms: _297  and  _298
REMARK  121  A    between atoms: _301  and  _303
REMARK  122  A    between atoms: _303  and  _304
REMARK  123  A    between atoms: _303  and  _306
REMARK  124  A    between atoms: _306  and  _307
REMARK  125  A    between atoms: _310  and  _312
REMARK  126  A    between atoms: _312  and  _313
REMARK  127  A    between atoms: _312  and  _315
REMARK  128  A    between atoms: _315  and  _316
REMARK  129  A    between atoms: _321  and  _323
REMARK  130  A    between atoms: _323  and  _324
REMARK  131  A    between atoms: _323  and  _326
REMARK  132  A    between atoms: _326  and  _327
REMARK  133  A    between atoms: _330  and  _332
REMARK  134  A    between atoms: _332  and  _333
REMARK  135  A    between atoms: _332  and  _335
REMARK  136  A    between atoms: _335  and  _336
REMARK  137  A    between atoms: _338  and  _340
REMARK  138  A    between atoms: _340  and  _341
REMARK  139  A    between atoms: _340  and  _343
REMARK  140  A    between atoms: _343  and  _344
REMARK  141  A    between atoms: _346  and  _348
REMARK  142  A    between atoms: _348  and  _349
REMARK  143  A    between atoms: _352  and  _354
REMARK  144  A    between atoms: _354  and  _355
REMARK  145  A    between atoms: _354  and  _357
REMARK  146  A    between atoms: _357  and  _358
REMARK  147  A    between atoms: _361  and  _363
REMARK  148  A    between atoms: _363  and  _364
REMARK  149  A    between atoms: _363  and  _366
REMARK  150  A    between atoms: _366  and  _367
REMARK  151  A    between atoms: _367  and  _368
REMARK  152  A    between atoms: _371  and  _373
REMARK  153  A    between atoms: _373  and  _374
REMARK  154  A    between atoms: _373  and  _376
REMARK  155  A    between atoms: _376  and  _377
REMARK  156  A    between atoms: _380  and  _382
REMARK  157  A    between atoms: _382  and  _383
REMARK  158  A    between atoms: _385  and  _387
REMARK  159  A    between atoms: _387  and  _388
REMARK  160  A    between atoms: _387  and  _390
REMARK  161  A    between atoms: _390  and  _391
REMARK  162  A    between atoms: _391  and  _392
REMARK  163  A    between atoms: _395  and  _397
REMARK  164  A    between atoms: _397  and  _398
REMARK  165  A    between atoms: _397  and  _400
REMARK  166  A    between atoms: _400  and  _401
REMARK  167  A    between atoms: _401  and  _402
REMARK  168  A    between atoms: _405  and  _407
REMARK  169  A    between atoms: _407  and  _408
REMARK  170  A    between atoms: _407  and  _410
REMARK  171  A    between atoms: _410  and  _411
REMARK  172  A    between atoms: _411  and  _412
REMARK  173  A    between atoms: _417  and  _419
REMARK  174  A    between atoms: _419  and  _420
REMARK  175  A    between atoms: _419  and  _422
REMARK  176  A    between atoms: _422  and  _423
REMARK  177  A    between atoms: _423  and  _424
REMARK  178  A    between atoms: _429  and  _431
REMARK  179  A    between atoms: _431  and  _432
REMARK  180  A    between atoms: _431  and  _434
REMARK  181  A    between atoms: _434  and  _435
REMARK  182  A    between atoms: _435  and  _436
REMARK  183  A    between atoms: _436  and  _437
REMARK  184  A    between atoms: _446  and  _448
REMARK  185  A    between atoms: _448  and  _449
REMARK  186  A    between atoms: _448  and  _451
REMARK  187  A    between atoms: _451  and  _452
REMARK  188  A    between atoms: _457  and  _458
REMARK  189  A    between atoms: _460  and  _462
REMARK  190  A    between atoms: _462  and  _463
REMARK  191  A    between atoms: _462  and  _465
REMARK  192  A    between atoms: _465  and  _466
REMARK  193  A    between atoms: _466  and  _467
REMARK  194  A    between atoms: _467  and  _468
REMARK  195  A    between atoms: _468  and  _469
REMARK  196  A    between atoms: _473  and  _475
REMARK  197  A    between atoms: _475  and  _476
REMARK  198  A    between atoms: _475  and  _478
REMARK  199  A    between atoms: _478  and  _479
REMARK  200  A    between atoms: _482  and  _484
REMARK  201  A    between atoms: _484  and  _485
REMARK  202  A    between atoms: _487  and  _489
REMARK  203  A    between atoms: _489  and  _490
REMARK  204  A    between atoms: _489  and  _492
REMARK  205  A    between atoms: _492  and  _493
REMARK  206  A    between atoms: _496  and  _498
REMARK  207  A    between atoms: _498  and  _499
REMARK  208  A    between atoms: _498  and  _501
REMARK  209  A    between atoms: _501  and  _502
REMARK  210  A    between atoms: _502  and  _503
REMARK  211  A    between atoms: _503  and  _504
REMARK  212  A    between atoms: _513  and  _515
REMARK  213  A    between atoms: _515  and  _516
REMARK  214  A    between atoms: _515  and  _518
REMARK  215  A    between atoms: _518  and  _519
REMARK  216  A    between atoms: _519  and  _520
REMARK  217  A    between atoms: _523  and  _525
REMARK  218  A    between atoms: _525  and  _526
REMARK  219  A    between atoms: _525  and  _528
REMARK  220  A    between atoms: _528  and  _529
REMARK  221  A    between atoms: _529  and  _530
REMARK  222  A    between atoms: _530  and  _531
REMARK  223  A    between atoms: _540  and  _542
REMARK  224  A    between atoms: _542  and  _543
REMARK  225  A    between atoms: _542  and  _545
REMARK  226  A    between atoms: _548  and  _550
REMARK  227  A    between atoms: _550  and  _551
REMARK  228  A    between atoms: _550  and  _553
REMARK  229  A    between atoms: _553  and  _554
REMARK  230  A    between atoms: _554  and  _555
REMARK  231  A    between atoms: _558  and  _560
REMARK  232  A    between atoms: _560  and  _561
REMARK  233  A    between atoms: _560  and  _563
REMARK  234  A    between atoms: _563  and  _564
REMARK  235  A    between atoms: _567  and  _569
REMARK  236  A    between atoms: _569  and  _570
REMARK  237  A    between atoms: _569  and  _572
REMARK  238  A    between atoms: _572  and  _573
REMARK  239  A    between atoms: _573  and  _574
REMARK  240  A    between atoms: _577  and  _579
REMARK  241  A    between atoms: _579  and  _580
REMARK  242  A    between atoms: _579  and  _582
REMARK  243  A    between atoms: _582  and  _583
REMARK  244  A    between atoms: _583  and  _584
REMARK  245  A    between atoms: _589  and  _591
REMARK  246  A    between atoms: _591  and  _592
REMARK  247  A    between atoms: _594  and  _596
REMARK  248  A    between atoms: _596  and  _597
REMARK  249  A    between atoms: _596  and  _599
REMARK  250  A    between atoms: _599  and  _600
REMARK  251  A    between atoms: _600  and  _601
REMARK  252  A    between atoms: _606  and  _608
REMARK  253  A    between atoms: _608  and  _609
REMARK  254  A    between atoms: _608  and  _611
REMARK  255  A    between atoms: _611  and  _612
REMARK  256  A    between atoms: _615  and  _617
REMARK  257  A    between atoms: _617  and  _618
REMARK  258  A    between atoms: _617  and  _620
REMARK  259  A    between atoms: _620  and  _621
REMARK  260  A    between atoms: _627  and  _629
REMARK  261  A    between atoms: _629  and  _630
REMARK  262  A    between atoms: _632  and  _634
REMARK  263  A    between atoms: _634  and  _635
REMARK  264  A    between atoms: _634  and  _637
REMARK  265  A    between atoms: _637  and  _638
REMARK  266  A    between atoms: _638  and  _639
REMARK  267  A    between atoms: _643  and  _644
REMARK                            x       y       z     vdW  Elec       q    Type
REMARK                         _______ _______ _______ _____ _____    ______ ____
ROOT
ATOM      1  CA  ARG A   2      23.044  32.663  -9.438  0.00  0.00    +0.137 C 
ENDROOT
BRANCH   1   4
ATOM      2  C   ILE A   1      22.022  30.579  -8.676  0.00  0.00    +0.238 C 
ATOM      3  O   ILE A   1      20.903  31.014  -8.909  0.00  0.00    -0.274 OA
ATOM      4  N   ARG A   2      23.117  31.292  -8.927  0.00  0.00    -0.298 N 
ATOM      5  H   ARG A   2      24.050  30.865  -8.756  0.00  0.00    +0.150 HD
BRANCH   2   6
ATOM      6  CA  ILE A   1      22.201  29.155  -8.081  0.00  0.00    +0.145 C 
BRANCH   6   7
ATOM      7  N   ILE A   1      23.597  28.696  -7.965  0.00  0.00    -0.238 NA
ATOM      8  H   ILE A   1      24.206  29.115  -7.234  0.00  0.00    +0.142 HD
ENDBRANCH   6   7
BRANCH   6   9
ATOM      9  CB  ILE A   1      21.443  29.031  -6.733  0.00  0.00    +0.025 C 
ATOM     10  CG2 ILE A   1      21.332  27.581  -6.334  0.00  0.00    +0.002 C 
BRANCH   9  11
ATOM     11  CG1 ILE A   1      22.160  29.807  -5.625  0.00  0.00    +0.002 C 
ATOM     12  CD1 ILE A   1      22.072  31.340  -5.739  0.00  0.00    +0.000 C 
ENDBRANCH   9  11
ENDBRANCH   6   9
ENDBRANCH   2   6
ENDBRANCH   1   4
BRANCH   1  13
ATOM     13  C   ARG A   2      22.227  32.764 -10.726  0.00  0.00    +0.227 C 
ATOM     14  O   ARG A   2      22.587  32.169 -11.740  0.00  0.00    -0.286 OA
ENDBRANCH   1  13
BRANCH   1  15
ATOM     15  CB  ARG A   2      24.453  33.221  -9.675  0.00  0.00    +0.031 C 
BRANCH  15  16
ATOM     16  CG  ARG A   2      24.520  34.721 -10.074  0.00  0.00    +0.045 C 
BRANCH  16  17
ATOM     17  CD  ARG A   2      23.986  35.646  -8.973  0.00  0.00    +0.174 C 
BRANCH  17  18
ATOM     18  NE  ARG A   2      24.686  35.507  -7.694  0.00  0.00    -0.265 N 
ATOM     19  CZ  ARG A   2      24.086  35.193  -6.543  0.00  0.00    +0.342 C 
ATOM     20  NH2 ARG A   2      24.796  35.086  -5.420  0.00  0.00    -0.292 N 
ATOM     21 HH21 ARG A   2      24.323  34.841  -4.527  0.00  0.00    +0.255 HD
ATOM     22 HH22 ARG A   2      25.823  35.247  -5.437  0.00  0.00    +0.255 HD
ATOM     23  NH1 ARG A   2      22.769  34.990  -6.507  0.00  0.00    -0.292 N 
ATOM     24 HH11 ARG A   2      22.305  34.746  -5.609  0.00  0.00    +0.255 HD
ATOM     25 HH12 ARG A   2      22.206  35.076  -7.377  0.00  0.00    +0.255 HD
ATOM     26  HE  ARG A   2      25.714  35.662  -7.681  0.00  0.00    +0.259 HD
ENDBRANCH  17  18
ENDBRANCH  16  17
ENDBRANCH  15  16
ENDBRANCH   1  15
TORSDOF 10
REMARK  Name = ../refined-set-2016/3pju/3pju_pocket.pdb
REMARK  267 active torsions:
REMARK  status: ('A' for Active; 'I' for Inactive)
REMARK    1  A    between atoms: _1  and  _3
REMARK    2  A    between atoms: _3  and  _4
REMARK    3  A    between atoms: _3  and  _6
REMARK    4  A    between atoms: _6  and  _7
REMARK    5  A    between atoms: _13  and  _15
REMARK    6  A    between atoms: _15  and  _16
REMARK    7  A    between atoms: _15  and  _18
REMARK    8  A    between atoms: _18  and  _19
REMARK    9  A    between atoms: _19  and  _20
REMARK   10  A    between atoms: _23  and  _25
REMARK   11  A    between atoms: _25  and  _26
REMARK   12  A    between atoms: _25  and  _28
REMARK   13  A    between atoms: _28  and  _29
REMARK   14  A    between atoms: _32  and  _34
REMARK   15  A    between atoms: _34  and  _35
REMARK   16  A    between atoms: _34  and  _37
REMARK   17  A    between atoms: _37  and  _38
REMARK   18  A    between atoms: _44  and  _46
REMARK   19  A    between atoms: _46  and  _47
REMARK   20  A    between atoms: _46  and  _49
REMARK   21  A    between atoms: _49  and  _50
REMARK   22  A    between atoms: _50  and  _51
REMARK   23  A    between atoms: _56  and  _58
REMARK   24  A    between atoms: _58  and  _59
REMARK   25  A    between atoms: _58  and  _61
REMARK   26  A    between atoms: _64  and  _66
REMARK   27  A    between atoms: _66  and  _67
REMARK   28  A    between atoms: _66  and  _69
REMARK   29  A    between atoms: _69  and  _70
REMARK   30  A    between atoms: _70  and  _71
REMARK   31  A    between atoms: _71  and  _72
REMARK   32  A    between atoms: _72  and  _73
REMARK   33  A    between atoms: _77  and  _79
REMARK   34  A    between atoms: _79  and  _80
REMARK   35  A    between atoms: _79  and  _82
REMARK   36  A    between atoms: _85  and  _87
REMARK   37  A    between atoms: _87  and  _88
REMARK   38  A    between atoms: _87  and  _90
REMARK   39  A    between atoms: _90  and  _91
REMARK   40  A    between atoms: _94  and  _96
REMARK   41  A    between atoms: _96  and  _97
REMARK   42  A    between atoms: _96  and  _99
REMARK   43  A    between atoms: _99  and  _100
REMARK   44  A    between atoms: _102  and  _104
REMARK   45  A    between atoms: _104  and  _105
REMARK   46  A    between atoms: _104  and  _107
REMARK   47  A    between atoms: _107  and  _108
REMARK   48  A    between atoms: _108  and  _109
REMARK   49  A    between atoms: _109  and  _110
REMARK   50  A    between atoms: _119  and  _121
REMARK   51  A    between atoms: _121  and  _122
REMARK   52  A    between atoms: _121  and  _124
REMARK   53  A    between atoms: _124  and  _125
REMARK   54  A    between atoms: _129  and  _130
REMARK   55  A    between atoms: _135  and  _137
REMARK   56  A    between atoms: _137  and  _138
REMARK   57  A    between atoms: _141  and  _143
REMARK   58  A    between atoms: _143  and  _144
REMARK   59  A    between atoms: _146  and  _148
REMARK   60  A    between atoms: _148  and  _149
REMARK   61  A    between atoms: _148  and  _151
REMARK   62  A    between atoms: _151  and  _152
REMARK   63  A    between atoms: _152  and  _153
REMARK   64  A    between atoms: _153  and  _154
REMARK   65  A    between atoms: _163  and  _165
REMARK   66  A    between atoms: _165  and  _166
REMARK   67  A    between atoms: _165  and  _168
REMARK   68  A    between atoms: _168  and  _169
REMARK   69  A    between atoms: _175  and  _177
REMARK   70  A    between atoms: _177  and  _178
REMARK   71  A    between atoms: _177  and  _180
REMARK   72  A    between atoms: _180  and  _181
REMARK   73  A    between atoms: _185  and  _186
REMARK   74  A    between atoms: _191  and  _193
REMARK   75  A    between atoms: _193  and  _194
REMARK   76  A    between atoms: _193  and  _196
REMARK   77  A    between atoms: _196  and  _197
REMARK   78  A    between atoms: _200  and  _202
REMARK   79  A    between atoms: _202  and  _203
REMARK   80  A    between atoms: _202  and  _205
REMARK   81  A    between atoms: _205  and  _206
REMARK   82  A    between atoms: _206  and  _207
REMARK   83  A    between atoms: _210  and  _212
REMARK   84  A    between atoms: _212  and  _213
REMARK   85  A    between atoms: _212  and  _215
REMARK   86  A    between atoms: _215  and  _216
REMARK   87  A    between atoms: _219  and  _221
REMARK   88  A    between atoms: _221  and  _222
REMARK   89  A    between atoms: _225  and  _227
REMARK   90  A    between atoms: _227  and  _228
REMARK   91  A    between atoms: _227  and  _230
REMARK   92  A    between atoms: _230  and  _231
REMARK   93  A    between atoms: _234  and  _236
REMARK   94  A    between atoms: _236  and  _237
REMARK   95  A    between atoms: _236  and  _239
REMARK   96  A    between atoms: _239  and  _240
REMARK   97  A    between atoms: _243  and  _245
REMARK   98  A    between atoms: _245  and  _246
REMARK   99  A    between atoms: _245  and  _248
REMARK  100  A    between atoms: _248  and  _249
REMARK  101  A    between atoms: _249  and  _250
REMARK  102  A    between atoms: _250  and  _251
REMARK  103  A    between atoms: _260  and  _262
REMARK  104  A    between atoms: _262  and  _263
REMARK  105  A    between atoms: _262  and  _265
REMARK  106  A    between atoms: _265  and  _266
REMARK  107  A    between atoms: _269  and  _271
REMARK  108  A    between atoms: _271  and  _272
REMARK  109  A    between atoms: _271  and  _274
REMARK  110  A    between atoms: _274  and  _275
REMARK  111  A    between atoms: _275  and  _276
REMARK  112  A    between atoms: _278  and  _280
REMARK  113  A    between atoms: _280  and  _281
REMARK  114  A    between atoms: _280  and  _283
REMARK  115  A    between atoms: _283  and  _284
REMARK  116  A    between atoms: _287  and  _289
REMARK  117  A    between atoms: _289  and  _290
REMARK  118  A    between atoms: _289  and  _292
REMARK  119  A    between atoms: _295  and  _297
REMARK  120  A    between atoms: _297  and  _298
REMARK  121  A    between atoms: _301  and  _303
REMARK  122  A    between atoms: _303  and  _304
REMARK  123  A    between atoms: _303  and  _306
REMARK  124  A    between atoms: _306  and  _307
REMARK  125  A    between atoms: _310  and  _312
REMARK  126  A    between atoms: _312  and  _313
REMARK  127  A    between atoms: _312  and  _315
REMARK  128  A    between atoms: _315  and  _316
REMARK  129  A    between atoms: _321  and  _323
REMARK  130  A    between atoms: _323  and  _324
REMARK  131  A    between atoms: _323  and  _326
REMARK  132  A    between atoms: _326  and  _327
REMARK  133  A    between atoms: _330  and  _332
REMARK  134  A    between atoms: _332  and  _333
REMARK  135  A    between atoms: _332  and  _335
REMARK  136  A    between atoms: _335  and  _336
REMARK  137  A    between atoms: _338  and  _340
REMARK  138  A    between atoms: _340  and  _341
REMARK  139  A    between atoms: _340  and  _343
REMARK  140  A    between atoms: _343  and  _344
REMARK  141  A    between atoms: _346  and  _348
REMARK  142  A    between atoms: _348  and  _349
REMARK  143  A    between atoms: _352  and  _354
REMARK  144  A    between atoms: _354  and  _355
REMARK  145  A    between atoms: _354  and  _357
REMARK  146  A    between atoms: _357  and  _358
REMARK  147  A    between atoms: _361  and  _363
REMARK  148  A    between atoms: _363  and  _364
REMARK  149  A    between atoms: _363  and  _366
REMARK  150  A    between atoms: _366  and  _367
REMARK  151  A    between atoms: _367  and  _368
REMARK  152  A    between atoms: _371  and  _373
REMARK  153  A    between atoms: _373  and  _374
REMARK  154  A    between atoms: _373  and  _376
REMARK  155  A    between atoms: _376  and  _377
REMARK  156  A    between atoms: _380  and  _382
REMARK  157  A    between atoms: _382  and  _383
REMARK  158  A    between atoms: _385  and  _387
REMARK  159  A    between atoms: _387  and  _388
REMARK  160  A    between atoms: _387  and  _390
REMARK  161  A    between atoms: _390  and  _391
REMARK  162  A    between atoms: _391  and  _392
REMARK  163  A    between atoms: _395  and  _397
REMARK  164  A    between atoms: _397  and  _398
REMARK  165  A    between atoms: _397  and  _400
REMARK  166  A    between atoms: _400  and  _401
REMARK  167  A    between atoms: _401  and  _402
REMARK  168  A    between atoms: _405  and  _407
REMARK  169  A    between atoms: _407  and  _408
REMARK  170  A    between atoms: _407  and  _410
REMARK  171  A    between atoms: _410  and  _411
REMARK  172  A    between atoms: _411  and  _412
REMARK  173  A    between atoms: _417  and  _419
REMARK  174  A    between atoms: _419  and  _420
REMARK  175  A    between atoms: _419  and  _422
REMARK  176  A    between atoms: _422  and  _423
REMARK  177  A    between atoms: _423  and  _424
REMARK  178  A    between atoms: _429  and  _431
REMARK  179  A    between atoms: _431  and  _432
REMARK  180  A    between atoms: _431  and  _434
REMARK  181  A    between atoms: _434  and  _435
REMARK  182  A    between atoms: _435  and  _436
REMARK  183  A    between atoms: _436  and  _437
REMARK  184  A    between atoms: _446  and  _448
REMARK  185  A    between atoms: _448  and  _449
REMARK  186  A    between atoms: _448  and  _451
REMARK  187  A    between atoms: _451  and  _452
REMARK  188  A    between atoms: _457  and  _458
REMARK  189  A    between atoms: _460  and  _462
REMARK  190  A    between atoms: _462  and  _463
REMARK  191  A    between atoms: _462  and  _465
REMARK  192  A    between atoms: _465  and  _466
REMARK  193  A    between atoms: _466  and  _467
REMARK  194  A    between atoms: _467  and  _468
REMARK  195  A    between atoms: _468  and  _469
REMARK  196  A    between atoms: _473  and  _475
REMARK  197  A    between atoms: _475  and  _476
REMARK  198  A    between atoms: _475  and  _478
REMARK  199  A    between atoms: _478  and  _479
REMARK  200  A    between atoms: _482  and  _484
REMARK  201  A    between atoms: _484  and  _485
REMARK  202  A    between atoms: _487  and  _489
REMARK  203  A    between atoms: _489  and  _490
REMARK  204  A    between atoms: _489  and  _492
REMARK  205  A    between atoms: _492  and  _493
REMARK  206  A    between atoms: _496  and  _498
REMARK  207  A    between atoms: _498  and  _499
REMARK  208  A    between atoms: _498  and  _501
REMARK  209  A    between atoms: _501  and  _502
REMARK  210  A    between atoms: _502  and  _503
REMARK  211  A    between atoms: _503  and  _504
REMARK  212  A    between atoms: _513  and  _515
REMARK  213  A    between atoms: _515  and  _516
REMARK  214  A    between atoms: _515  and  _518
REMARK  215  A    between atoms: _518  and  _519
REMARK  216  A    between atoms: _519  and  _520
REMARK  217  A    between atoms: _523  and  _525
REMARK  218  A    between atoms: _525  and  _526
REMARK  219  A    between atoms: _525  and  _528
REMARK  220  A    between atoms: _528  and  _529
REMARK  221  A    between atoms: _529  and  _530
REMARK  222  A    between atoms: _530  and  _531
REMARK  223  A    between atoms: _540  and  _542
REMARK  224  A    between atoms: _542  and  _543
REMARK  225  A    between atoms: _542  and  _545
REMARK  226  A    between atoms: _548  and  _550
REMARK  227  A    between atoms: _550  and  _551
REMARK  228  A    between atoms: _550  and  _553
REMARK  229  A    between atoms: _553  and  _554
REMARK  230  A    between atoms: _554  and  _555
REMARK  231  A    between atoms: _558  and  _560
REMARK  232  A    between atoms: _560  and  _561
REMARK  233  A    between atoms: _560  and  _563
REMARK  234  A    between atoms: _563  and  _564
REMARK  235  A    between atoms: _567  and  _569
REMARK  236  A    between atoms: _569  and  _570
REMARK  237  A    between atoms: _569  and  _572
REMARK  238  A    between atoms: _572  and  _573
REMARK  239  A    between atoms: _573  and  _574
REMARK  240  A    between atoms: _577  and  _579
REMARK  241  A    between atoms: _579  and  _580
REMARK  242  A    between atoms: _579  and  _582
REMARK  243  A    between atoms: _582  and  _583
REMARK  244  A    between atoms: _583  and  _584
REMARK  245  A    between atoms: _589  and  _591
REMARK  246  A    between atoms: _591  and  _592
REMARK  247  A    between atoms: _594  and  _596
REMARK  248  A    between atoms: _596  and  _597
REMARK  249  A    between atoms: _596  and  _599
REMARK  250  A    between atoms: _599  and  _600
REMARK  251  A    between atoms: _600  and  _601
REMARK  252  A    between atoms: _606  and  _608
REMARK  253  A    between atoms: _608  and  _609
REMARK  254  A    between atoms: _608  and  _611
REMARK  255  A    between atoms: _611  and  _612
REMARK  256  A    between atoms: _615  and  _617
REMARK  257  A    between atoms: _617  and  _618
REMARK  258  A    between atoms: _617  and  _620
REMARK  259  A    between atoms: _620  and  _621
REMARK  260  A    between atoms: _627  and  _629
REMARK  261  A    between atoms: _629  and  _630
REMARK  262  A    between atoms: _632  and  _634
REMARK  263  A    between atoms: _634  and  _635
REMARK  264  A    between atoms: _634  and  _637
REMARK  265  A    between atoms: _637  and  _638
REMARK  266  A    between atoms: _638  and  _639
REMARK  267  A    between atoms: _643  and  _644
REMARK                            x       y       z     vdW  Elec       q    Type
REMARK                         _______ _______ _______ _____ _____    ______ ____
ROOT
ATOM      1  C   ARG A   2      22.639  34.320  -2.465  0.00  0.00    +0.241 C 
ATOM      2  N   VAL A   3      21.420  34.032  -2.020  0.00  0.00    -0.297 N 
ATOM      3  H   VAL A   3      21.308  33.673  -1.051  0.00  0.00    +0.150 HD
ATOM      4  O   ARG A   2      22.869  34.674  -3.628  0.00  0.00    -0.273 OA
ENDROOT
BRANCH   2   5
ATOM      5  CA  VAL A   3      20.234  34.206  -2.854  0.00  0.00    +0.149 C 
BRANCH   5   6
ATOM      6  C   VAL A   3      19.827  35.678  -2.893  0.00  0.00    +0.241 C 
ATOM      7  O   VAL A   3      19.649  36.309  -1.848  0.00  0.00    -0.273 OA
ATOM      8  N   GLU A   4      19.676  36.226  -4.093  0.00  0.00    -0.297 N 
ATOM      9  H   GLU A   4      19.675  35.622  -4.940  0.00  0.00    +0.150 HD
BRANCH   8  10
ATOM     10  CA  GLU A   4      19.511  37.668  -4.233  0.00  0.00    +0.149 C 
BRANCH  10  11
ATOM     11  C   GLU A   4      18.160  38.091  -4.786  0.00  0.00    +0.241 C 
ATOM     12  O   GLU A   4      17.790  39.250  -4.703  0.00  0.00    -0.273 OA
ATOM     13  N   THR A   5      17.403  37.127  -5.285  0.00  0.00    -0.296 N 
ATOM     14  H   THR A   5      17.565  36.150  -4.968  0.00  0.00    +0.150 HD
BRANCH  13  15
ATOM     15  CA  THR A   5      16.356  37.380  -6.258  0.00  0.00    +0.164 C 
BRANCH  15  16
ATOM     16  CB  THR A   5      16.967  37.048  -7.639  0.00  0.00    +0.136 C 
ATOM     17  CG2 THR A   5      15.960  36.525  -8.592  0.00  0.00    +0.034 C 
BRANCH  16  18
ATOM     18  OG1 THR A   5      17.624  38.214  -8.179  0.00  0.00    -0.382 OA
ATOM     19  HG1 THR A   5      18.012  37.993  -9.063  0.00  0.00    +0.210 HD
ENDBRANCH  16  18
ENDBRANCH  15  16
BRANCH  15  20
ATOM     20  C   THR A   5      15.110  36.525  -5.950  0.00  0.00    +0.229 C 
ATOM     21  O   THR A   5      15.234  35.409  -5.419  0.00  0.00    -0.286 OA
ENDBRANCH  15  20
ENDBRANCH  13  15
ENDBRANCH  10  11
BRANCH  10  22
ATOM     22  CB  GLU A   4      20.624  38.247  -5.114  0.00  0.00    +0.041 C 
BRANCH  22  23
ATOM     23  CG  GLU A   4      21.994  38.236  -4.471  0.00  0.00    +0.116 C 
BRANCH  23  24
ATOM     24  CD  GLU A   4      23.071  38.640  -5.452  0.00  0.00    +0.365 C 
ATOM     25  OE2 GLU A   4      24.246  38.779  -5.049  0.00  0.00    -0.246 OA
ATOM     26  OE1 GLU A   4      22.722  38.826  -6.636  0.00  0.00    -0.246 OA
ENDBRANCH  23  24
ENDBRANCH  22  23
ENDBRANCH  10  22
ENDBRANCH   8  10
ENDBRANCH   5   6
BRANCH   5  27
ATOM     27  CB  VAL A   3      19.071  33.357  -2.334  0.00  0.00    +0.027 C 
ATOM     28  CG2 VAL A   3      19.407  31.868  -2.485  0.00  0.00    +0.002 C 
ATOM     29  CG1 VAL A   3      17.781  33.719  -3.054  0.00  0.00    +0.002 C 
ENDBRANCH   5  27
ENDBRANCH   2   5
BRANCH   1  30
ATOM     30  CA  ARG A   2      23.758  34.195  -1.443  0.00  0.00    +0.149 C 
BRANCH  30  32
ATOM     31  C   GLU A   1      23.579  31.767  -1.215  0.00  0.00    +0.238 C 
ATOM     32  N   ARG A   2      23.708  32.971  -0.660  0.00  0.00    -0.297 N 
ATOM     33  H   ARG A   2      23.776  33.038   0.376  0.00  0.00    +0.150 HD
ATOM     34  O   GLU A   1      23.322  31.585  -2.407  0.00  0.00    -0.274 OA
BRANCH  31  35
ATOM     35  CA  GLU A   1      23.799  30.588  -0.282  0.00  0.00    +0.145 C 
BRANCH  35  36
ATOM     36  N   GLU A   1      23.173  29.363  -0.791  0.00  0.00    -0.238 NA
ATOM     37  H   GLU A   1      23.699  28.773  -1.466  0.00  0.00    +0.142 HD
ENDBRANCH  35  36
BRANCH  35  38
ATOM     38  CB  GLU A   1      25.312  30.408  -0.125  0.00  0.00    +0.038 C 
BRANCH  38  39
ATOM     39  CG  GLU A   1      25.744  29.456   0.965  0.00  0.00    +0.116 C 
BRANCH  39  40
ATOM     40  CD  GLU A   1      27.269  29.393   1.100  0.00  0.00    +0.365 C 
ATOM     41  OE2 GLU A   1      27.754  28.535   1.857  0.00  0.00    -0.246 OA
ATOM     42  OE1 GLU A   1      27.978  30.204   0.457  0.00  0.00    -0.246 OA
ENDBRANCH  39  40
ENDBRANCH  38  39
ENDBRANCH  35  38
ENDBRANCH  31  35
ENDBRANCH  30  32
BRANCH  30  43
ATOM     43  CB  ARG A   2      25.125  34.329  -2.106  0.00  0.00    +0.033 C 
BRANCH  43  44
ATOM     44  CG  ARG A   2      26.257  34.433  -1.078  0.00  0.00    +0.045 C 
BRANCH  44  45
ATOM     45  CD  ARG A   2      27.595  34.824  -1.687  0.00  0.00    +0.174 C 
BRANCH  45  46
ATOM     46  NE  ARG A   2      28.658  34.516  -0.739  0.00  0.00    -0.265 N 
ATOM     47  HE  ARG A   2      28.587  33.617  -0.221  0.00  0.00    +0.259 HD
ATOM     48  CZ  ARG A   2      29.719  35.291  -0.478  0.00  0.00    +0.342 C 
ATOM     49  NH2 ARG A   2      30.625  34.883   0.417  0.00  0.00    -0.292 N 
ATOM     50 HH21 ARG A   2      30.502  33.972   0.903  0.00  0.00    +0.255 HD
ATOM     51 HH22 ARG A   2      31.452  35.477   0.627  0.00  0.00    +0.255 HD
ATOM     52  NH1 ARG A   2      29.884  36.469  -1.093  0.00  0.00    -0.292 N 
ATOM     53 HH11 ARG A   2      30.714  37.057  -0.877  0.00  0.00    +0.255 HD
ATOM     54 HH12 ARG A   2      29.182  36.796  -1.787  0.00  0.00    +0.255 HD
ENDBRANCH  45  46
ENDBRANCH  44  45
ENDBRANCH  43  44
ENDBRANCH  30  43
ENDBRANCH   1  30
TORSDOF 23
REMARK  Name = ../refined-set-2016/3pju/3pju_pocket.pdb
REMARK  267 active torsions:
REMARK  status: ('A' for Active; 'I' for Inactive)
REMARK    1  A    between atoms: _1  and  _3
REMARK    2  A    between atoms: _3  and  _4
REMARK    3  A    between atoms: _3  and  _6
REMARK    4  A    between atoms: _6  and  _7
REMARK    5  A    between atoms: _13  and  _15
REMARK    6  A    between atoms: _15  and  _16
REMARK    7  A    between atoms: _15  and  _18
REMARK    8  A    between atoms: _18  and  _19
REMARK    9  A    between atoms: _19  and  _20
REMARK   10  A    between atoms: _23  and  _25
REMARK   11  A    between atoms: _25  and  _26
REMARK   12  A    between atoms: _25  and  _28
REMARK   13  A    between atoms: _28  and  _29
REMARK   14  A    between atoms: _32  and  _34
REMARK   15  A    between atoms: _34  and  _35
REMARK   16  A    between atoms: _34  and  _37
REMARK   17  A    between atoms: _37  and  _38
REMARK   18  A    between atoms: _44  and  _46
REMARK   19  A    between atoms: _46  and  _47
REMARK   20  A    between atoms: _46  and  _49
REMARK   21  A    between atoms: _49  and  _50
REMARK   22  A    between atoms: _50  and  _51
REMARK   23  A    between atoms: _56  and  _58
REMARK   24  A    between atoms: _58  and  _59
REMARK   25  A    between atoms: _58  and  _61
REMARK   26  A    between atoms: _64  and  _66
REMARK   27  A    between atoms: _66  and  _67
REMARK   28  A    between atoms: _66  and  _69
REMARK   29  A    between atoms: _69  and  _70
REMARK   30  A    between atoms: _70  and  _71
REMARK   31  A    between atoms: _71  and  _72
REMARK   32  A    between atoms: _72  and  _73
REMARK   33  A    between atoms: _77  and  _79
REMARK   34  A    between atoms: _79  and  _80
REMARK   35  A    between atoms: _79  and  _82
REMARK   36  A    between atoms: _85  and  _87
REMARK   37  A    between atoms: _87  and  _88
REMARK   38  A    between atoms: _87  and  _90
REMARK   39  A    between atoms: _90  and  _91
REMARK   40  A    between atoms: _94  and  _96
REMARK   41  A    between atoms: _96  and  _97
REMARK   42  A    between atoms: _96  and  _99
REMARK   43  A    between atoms: _99  and  _100
REMARK   44  A    between atoms: _102  and  _104
REMARK   45  A    between atoms: _104  and  _105
REMARK   46  A    between atoms: _104  and  _107
REMARK   47  A    between atoms: _107  and  _108
REMARK   48  A    between atoms: _108  and  _109
REMARK   49  A    between atoms: _109  and  _110
REMARK   50  A    between atoms: _119  and  _121
REMARK   51  A    between atoms: _121  and  _122
REMARK   52  A    between atoms: _121  and  _124
REMARK   53  A    between atoms: _124  and  _125
REMARK   54  A    between atoms: _129  and  _130
REMARK   55  A    between atoms: _135  and  _137
REMARK   56  A    between atoms: _137  and  _138
REMARK   57  A    between atoms: _141  and  _143
REMARK   58  A    between atoms: _143  and  _144
REMARK   59  A    between atoms: _146  and  _148
REMARK   60  A    between atoms: _148  and  _149
REMARK   61  A    between atoms: _148  and  _151
REMARK   62  A    between atoms: _151  and  _152
REMARK   63  A    between atoms: _152  and  _153
REMARK   64  A    between atoms: _153  and  _154
REMARK   65  A    between atoms: _163  and  _165
REMARK   66  A    between atoms: _165  and  _166
REMARK   67  A    between atoms: _165  and  _168
REMARK   68  A    between atoms: _168  and  _169
REMARK   69  A    between atoms: _175  and  _177
REMARK   70  A    between atoms: _177  and  _178
REMARK   71  A    between atoms: _177  and  _180
REMARK   72  A    between atoms: _180  and  _181
REMARK   73  A    between atoms: _185  and  _186
REMARK   74  A    between atoms: _191  and  _193
REMARK   75  A    between atoms: _193  and  _194
REMARK   76  A    between atoms: _193  and  _196
REMARK   77  A    between atoms: _196  and  _197
REMARK   78  A    between atoms: _200  and  _202
REMARK   79  A    between atoms: _202  and  _203
REMARK   80  A    between atoms: _202  and  _205
REMARK   81  A    between atoms: _205  and  _206
REMARK   82  A    between atoms: _206  and  _207
REMARK   83  A    between atoms: _210  and  _212
REMARK   84  A    between atoms: _212  and  _213
REMARK   85  A    between atoms: _212  and  _215
REMARK   86  A    between atoms: _215  and  _216
REMARK   87  A    between atoms: _219  and  _221
REMARK   88  A    between atoms: _221  and  _222
REMARK   89  A    between atoms: _225  and  _227
REMARK   90  A    between atoms: _227  and  _228
REMARK   91  A    between atoms: _227  and  _230
REMARK   92  A    between atoms: _230  and  _231
REMARK   93  A    between atoms: _234  and  _236
REMARK   94  A    between atoms: _236  and  _237
REMARK   95  A    between atoms: _236  and  _239
REMARK   96  A    between atoms: _239  and  _240
REMARK   97  A    between atoms: _243  and  _245
REMARK   98  A    between atoms: _245  and  _246
REMARK   99  A    between atoms: _245  and  _248
REMARK  100  A    between atoms: _248  and  _249
REMARK  101  A    between atoms: _249  and  _250
REMARK  102  A    between atoms: _250  and  _251
REMARK  103  A    between atoms: _260  and  _262
REMARK  104  A    between atoms: _262  and  _263
REMARK  105  A    between atoms: _262  and  _265
REMARK  106  A    between atoms: _265  and  _266
REMARK  107  A    between atoms: _269  and  _271
REMARK  108  A    between atoms: _271  and  _272
REMARK  109  A    between atoms: _271  and  _274
REMARK  110  A    between atoms: _274  and  _275
REMARK  111  A    between atoms: _275  and  _276
REMARK  112  A    between atoms: _278  and  _280
REMARK  113  A    between atoms: _280  and  _281
REMARK  114  A    between atoms: _280  and  _283
REMARK  115  A    between atoms: _283  and  _284
REMARK  116  A    between atoms: _287  and  _289
REMARK  117  A    between atoms: _289  and  _290
REMARK  118  A    between atoms: _289  and  _292
REMARK  119  A    between atoms: _295  and  _297
REMARK  120  A    between atoms: _297  and  _298
REMARK  121  A    between atoms: _301  and  _303
REMARK  122  A    between atoms: _303  and  _304
REMARK  123  A    between atoms: _303  and  _306
REMARK  124  A    between atoms: _306  and  _307
REMARK  125  A    between atoms: _310  and  _312
REMARK  126  A    between atoms: _312  and  _313
REMARK  127  A    between atoms: _312  and  _315
REMARK  128  A    between atoms: _315  and  _316
REMARK  129  A    between atoms: _321  and  _323
REMARK  130  A    between atoms: _323  and  _324
REMARK  131  A    between atoms: _323  and  _326
REMARK  132  A    between atoms: _326  and  _327
REMARK  133  A    between atoms: _330  and  _332
REMARK  134  A    between atoms: _332  and  _333
REMARK  135  A    between atoms: _332  and  _335
REMARK  136  A    between atoms: _335  and  _336
REMARK  137  A    between atoms: _338  and  _340
REMARK  138  A    between atoms: _340  and  _341
REMARK  139  A    between atoms: _340  and  _343
REMARK  140  A    between atoms: _343  and  _344
REMARK  141  A    between atoms: _346  and  _348
REMARK  142  A    between atoms: _348  and  _349
REMARK  143  A    between atoms: _352  and  _354
REMARK  144  A    between atoms: _354  and  _355
REMARK  145  A    between atoms: _354  and  _357
REMARK  146  A    between atoms: _357  and  _358
REMARK  147  A    between atoms: _361  and  _363
REMARK  148  A    between atoms: _363  and  _364
REMARK  149  A    between atoms: _363  and  _366
REMARK  150  A    between atoms: _366  and  _367
REMARK  151  A    between atoms: _367  and  _368
REMARK  152  A    between atoms: _371  and  _373
REMARK  153  A    between atoms: _373  and  _374
REMARK  154  A    between atoms: _373  and  _376
REMARK  155  A    between atoms: _376  and  _377
REMARK  156  A    between atoms: _380  and  _382
REMARK  157  A    between atoms: _382  and  _383
REMARK  158  A    between atoms: _385  and  _387
REMARK  159  A    between atoms: _387  and  _388
REMARK  160  A    between atoms: _387  and  _390
REMARK  161  A    between atoms: _390  and  _391
REMARK  162  A    between atoms: _391  and  _392
REMARK  163  A    between atoms: _395  and  _397
REMARK  164  A    between atoms: _397  and  _398
REMARK  165  A    between atoms: _397  and  _400
REMARK  166  A    between atoms: _400  and  _401
REMARK  167  A    between atoms: _401  and  _402
REMARK  168  A    between atoms: _405  and  _407
REMARK  169  A    between atoms: _407  and  _408
REMARK  170  A    between atoms: _407  and  _410
REMARK  171  A    between atoms: _410  and  _411
REMARK  172  A    between atoms: _411  and  _412
REMARK  173  A    between atoms: _417  and  _419
REMARK  174  A    between atoms: _419  and  _420
REMARK  175  A    between atoms: _419  and  _422
REMARK  176  A    between atoms: _422  and  _423
REMARK  177  A    between atoms: _423  and  _424
REMARK  178  A    between atoms: _429  and  _431
REMARK  179  A    between atoms: _431  and  _432
REMARK  180  A    between atoms: _431  and  _434
REMARK  181  A    between atoms: _434  and  _435
REMARK  182  A    between atoms: _435  and  _436
REMARK  183  A    between atoms: _436  and  _437
REMARK  184  A    between atoms: _446  and  _448
REMARK  185  A    between atoms: _448  and  _449
REMARK  186  A    between atoms: _448  and  _451
REMARK  187  A    between atoms: _451  and  _452
REMARK  188  A    between atoms: _457  and  _458
REMARK  189  A    between atoms: _460  and  _462
REMARK  190  A    between atoms: _462  and  _463
REMARK  191  A    between atoms: _462  and  _465
REMARK  192  A    between atoms: _465  and  _466
REMARK  193  A    between atoms: _466  and  _467
REMARK  194  A    between atoms: _467  and  _468
REMARK  195  A    between atoms: _468  and  _469
REMARK  196  A    between atoms: _473  and  _475
REMARK  197  A    between atoms: _475  and  _476
REMARK  198  A    between atoms: _475  and  _478
REMARK  199  A    between atoms: _478  and  _479
REMARK  200  A    between atoms: _482  and  _484
REMARK  201  A    between atoms: _484  and  _485
REMARK  202  A    between atoms: _487  and  _489
REMARK  203  A    between atoms: _489  and  _490
REMARK  204  A    between atoms: _489  and  _492
REMARK  205  A    between atoms: _492  and  _493
REMARK  206  A    between atoms: _496  and  _498
REMARK  207  A    between atoms: _498  and  _499
REMARK  208  A    between atoms: _498  and  _501
REMARK  209  A    between atoms: _501  and  _502
REMARK  210  A    between atoms: _502  and  _503
REMARK  211  A    between atoms: _503  and  _504
REMARK  212  A    between atoms: _513  and  _515
REMARK  213  A    between atoms: _515  and  _516
REMARK  214  A    between atoms: _515  and  _518
REMARK  215  A    between atoms: _518  and  _519
REMARK  216  A    between atoms: _519  and  _520
REMARK  217  A    between atoms: _523  and  _525
REMARK  218  A    between atoms: _525  and  _526
REMARK  219  A    between atoms: _525  and  _528
REMARK  220  A    between atoms: _528  and  _529
REMARK  221  A    between atoms: _529  and  _530
REMARK  222  A    between atoms: _530  and  _531
REMARK  223  A    between atoms: _540  and  _542
REMARK  224  A    between atoms: _542  and  _543
REMARK  225  A    between atoms: _542  and  _545
REMARK  226  A    between atoms: _548  and  _550
REMARK  227  A    between atoms: _550  and  _551
REMARK  228  A    between atoms: _550  and  _553
REMARK  229  A    between atoms: _553  and  _554
REMARK  230  A    between atoms: _554  and  _555
REMARK  231  A    between atoms: _558  and  _560
REMARK  232  A    between atoms: _560  and  _561
REMARK  233  A    between atoms: _560  and  _563
REMARK  234  A    between atoms: _563  and  _564
REMARK  235  A    between atoms: _567  and  _569
REMARK  236  A    between atoms: _569  and  _570
REMARK  237  A    between atoms: _569  and  _572
REMARK  238  A    between atoms: _572  and  _573
REMARK  239  A    between atoms: _573  and  _574
REMARK  240  A    between atoms: _577  and  _579
REMARK  241  A    between atoms: _579  and  _580
REMARK  242  A    between atoms: _579  and  _582
REMARK  243  A    between atoms: _582  and  _583
REMARK  244  A    between atoms: _583  and  _584
REMARK  245  A    between atoms: _589  and  _591
REMARK  246  A    between atoms: _591  and  _592
REMARK  247  A    between atoms: _594  and  _596
REMARK  248  A    between atoms: _596  and  _597
REMARK  249  A    between atoms: _596  and  _599
REMARK  250  A    between atoms: _599  and  _600
REMARK  251  A    between atoms: _600  and  _601
REMARK  252  A    between atoms: _606  and  _608
REMARK  253  A    between atoms: _608  and  _609
REMARK  254  A    between atoms: _608  and  _611
REMARK  255  A    between atoms: _611  and  _612
REMARK  256  A    between atoms: _615  and  _617
REMARK  257  A    between atoms: _617  and  _618
REMARK  258  A    between atoms: _617  and  _620
REMARK  259  A    between atoms: _620  and  _621
REMARK  260  A    between atoms: _627  and  _629
REMARK  261  A    between atoms: _629  and  _630
REMARK  262  A    between atoms: _632  and  _634
REMARK  263  A    between atoms: _634  and  _635
REMARK  264  A    between atoms: _634  and  _637
REMARK  265  A    between atoms: _637  and  _638
REMARK  266  A    between atoms: _638  and  _639
REMARK  267  A    between atoms: _643  and  _644
REMARK                            x       y       z     vdW  Elec       q    Type
REMARK                         _______ _______ _______ _____ _____    ______ ____
ROOT
ATOM      1  CA  GLU A   1      16.362  32.308  -7.843  0.00  0.00    +0.134 C 
ENDROOT
BRANCH   1   2
ATOM      2  N   GLU A   1      15.506  33.336  -8.420  0.00  0.00    -0.239 NA
ATOM      3  H   GLU A   1      15.880  34.303  -8.502  0.00  0.00    +0.142 HD
ENDBRANCH   1   2
BRANCH   1   4
ATOM      4  C   GLU A   1      15.640  31.566  -6.735  0.00  0.00    +0.224 C 
ATOM      5  O   GLU A   1      15.583  30.336  -6.733  0.00  0.00    -0.287 OA
ENDBRANCH   1   4
BRANCH   1   6
ATOM      6  CB  GLU A   1      17.633  32.934  -7.275  0.00  0.00    +0.037 C 
BRANCH   6   7
ATOM      7  CG  GLU A   1      18.564  33.534  -8.334  0.00  0.00    +0.116 C 
BRANCH   7   8
ATOM      8  CD  GLU A   1      19.648  34.403  -7.730  0.00  0.00    +0.365 C 
ATOM      9  OE2 GLU A   1      19.683  34.536  -6.485  0.00  0.00    -0.246 OA
ATOM     10  OE1 GLU A   1      20.453  34.970  -8.501  0.00  0.00    -0.246 OA
ENDBRANCH   7   8
ENDBRANCH   6   7
ENDBRANCH   1   6
TORSDOF 5
REMARK  Name = ../refined-set-2016/3pju/3pju_pocket.pdb
REMARK  267 active torsions:
REMARK  status: ('A' for Active; 'I' for Inactive)
REMARK    1  A    between atoms: _1  and  _3
REMARK    2  A    between atoms: _3  and  _4
REMARK    3  A    between atoms: _3  and  _6
REMARK    4  A    between atoms: _6  and  _7
REMARK    5  A    between atoms: _13  and  _15
REMARK    6  A    between atoms: _15  and  _16
REMARK    7  A    between atoms: _15  and  _18
REMARK    8  A    between atoms: _18  and  _19
REMARK    9  A    between atoms: _19  and  _20
REMARK   10  A    between atoms: _23  and  _25
REMARK   11  A    between atoms: _25  and  _26
REMARK   12  A    between atoms: _25  and  _28
REMARK   13  A    between atoms: _28  and  _29
REMARK   14  A    between atoms: _32  and  _34
REMARK   15  A    between atoms: _34  and  _35
REMARK   16  A    between atoms: _34  and  _37
REMARK   17  A    between atoms: _37  and  _38
REMARK   18  A    between atoms: _44  and  _46
REMARK   19  A    between atoms: _46  and  _47
REMARK   20  A    between atoms: _46  and  _49
REMARK   21  A    between atoms: _49  and  _50
REMARK   22  A    between atoms: _50  and  _51
REMARK   23  A    between atoms: _56  and  _58
REMARK   24  A    between atoms: _58  and  _59
REMARK   25  A    between atoms: _58  and  _61
REMARK   26  A    between atoms: _64  and  _66
REMARK   27  A    between atoms: _66  and  _67
REMARK   28  A    between atoms: _66  and  _69
REMARK   29  A    between atoms: _69  and  _70
REMARK   30  A    between atoms: _70  and  _71
REMARK   31  A    between atoms: _71  and  _72
REMARK   32  A    between atoms: _72  and  _73
REMARK   33  A    between atoms: _77  and  _79
REMARK   34  A    between atoms: _79  and  _80
REMARK   35  A    between atoms: _79  and  _82
REMARK   36  A    between atoms: _85  and  _87
REMARK   37  A    between atoms: _87  and  _88
REMARK   38  A    between atoms: _87  and  _90
REMARK   39  A    between atoms: _90  and  _91
REMARK   40  A    between atoms: _94  and  _96
REMARK   41  A    between atoms: _96  and  _97
REMARK   42  A    between atoms: _96  and  _99
REMARK   43  A    between atoms: _99  and  _100
REMARK   44  A    between atoms: _102  and  _104
REMARK   45  A    between atoms: _104  and  _105
REMARK   46  A    between atoms: _104  and  _107
REMARK   47  A    between atoms: _107  and  _108
REMARK   48  A    between atoms: _108  and  _109
REMARK   49  A    between atoms: _109  and  _110
REMARK   50  A    between atoms: _119  and  _121
REMARK   51  A    between atoms: _121  and  _122
REMARK   52  A    between atoms: _121  and  _124
REMARK   53  A    between atoms: _124  and  _125
REMARK   54  A    between atoms: _129  and  _130
REMARK   55  A    between atoms: _135  and  _137
REMARK   56  A    between atoms: _137  and  _138
REMARK   57  A    between atoms: _141  and  _143
REMARK   58  A    between atoms: _143  and  _144
REMARK   59  A    between atoms: _146  and  _148
REMARK   60  A    between atoms: _148  and  _149
REMARK   61  A    between atoms: _148  and  _151
REMARK   62  A    between atoms: _151  and  _152
REMARK   63  A    between atoms: _152  and  _153
REMARK   64  A    between atoms: _153  and  _154
REMARK   65  A    between atoms: _163  and  _165
REMARK   66  A    between atoms: _165  and  _166
REMARK   67  A    between atoms: _165  and  _168
REMARK   68  A    between atoms: _168  and  _169
REMARK   69  A    between atoms: _175  and  _177
REMARK   70  A    between atoms: _177  and  _178
REMARK   71  A    between atoms: _177  and  _180
REMARK   72  A    between atoms: _180  and  _181
REMARK   73  A    between atoms: _185  and  _186
REMARK   74  A    between atoms: _191  and  _193
REMARK   75  A    between atoms: _193  and  _194
REMARK   76  A    between atoms: _193  and  _196
REMARK   77  A    between atoms: _196  and  _197
REMARK   78  A    between atoms: _200  and  _202
REMARK   79  A    between atoms: _202  and  _203
REMARK   80  A    between atoms: _202  and  _205
REMARK   81  A    between atoms: _205  and  _206
REMARK   82  A    between atoms: _206  and  _207
REMARK   83  A    between atoms: _210  and  _212
REMARK   84  A    between atoms: _212  and  _213
REMARK   85  A    between atoms: _212  and  _215
REMARK   86  A    between atoms: _215  and  _216
REMARK   87  A    between atoms: _219  and  _221
REMARK   88  A    between atoms: _221  and  _222
REMARK   89  A    between atoms: _225  and  _227
REMARK   90  A    between atoms: _227  and  _228
REMARK   91  A    between atoms: _227  and  _230
REMARK   92  A    between atoms: _230  and  _231
REMARK   93  A    between atoms: _234  and  _236
REMARK   94  A    between atoms: _236  and  _237
REMARK   95  A    between atoms: _236  and  _239
REMARK   96  A    between atoms: _239  and  _240
REMARK   97  A    between atoms: _243  and  _245
REMARK   98  A    between atoms: _245  and  _246
REMARK   99  A    between atoms: _245  and  _248
REMARK  100  A    between atoms: _248  and  _249
REMARK  101  A    between atoms: _249  and  _250
REMARK  102  A    between atoms: _250  and  _251
REMARK  103  A    between atoms: _260  and  _262
REMARK  104  A    between atoms: _262  and  _263
REMARK  105  A    between atoms: _262  and  _265
REMARK  106  A    between atoms: _265  and  _266
REMARK  107  A    between atoms: _269  and  _271
REMARK  108  A    between atoms: _271  and  _272
REMARK  109  A    between atoms: _271  and  _274
REMARK  110  A    between atoms: _274  and  _275
REMARK  111  A    between atoms: _275  and  _276
REMARK  112  A    between atoms: _278  and  _280
REMARK  113  A    between atoms: _280  and  _281
REMARK  114  A    between atoms: _280  and  _283
REMARK  115  A    between atoms: _283  and  _284
REMARK  116  A    between atoms: _287  and  _289
REMARK  117  A    between atoms: _289  and  _290
REMARK  118  A    between atoms: _289  and  _292
REMARK  119  A    between atoms: _295  and  _297
REMARK  120  A    between atoms: _297  and  _298
REMARK  121  A    between atoms: _301  and  _303
REMARK  122  A    between atoms: _303  and  _304
REMARK  123  A    between atoms: _303  and  _306
REMARK  124  A    between atoms: _306  and  _307
REMARK  125  A    between atoms: _310  and  _312
REMARK  126  A    between atoms: _312  and  _313
REMARK  127  A    between atoms: _312  and  _315
REMARK  128  A    between atoms: _315  and  _316
REMARK  129  A    between atoms: _321  and  _323
REMARK  130  A    between atoms: _323  and  _324
REMARK  131  A    between atoms: _323  and  _326
REMARK  132  A    between atoms: _326  and  _327
REMARK  133  A    between atoms: _330  and  _332
REMARK  134  A    between atoms: _332  and  _333
REMARK  135  A    between atoms: _332  and  _335
REMARK  136  A    between atoms: _335  and  _336
REMARK  137  A    between atoms: _338  and  _340
REMARK  138  A    between atoms: _340  and  _341
REMARK  139  A    between atoms: _340  and  _343
REMARK  140  A    between atoms: _343  and  _344
REMARK  141  A    between atoms: _346  and  _348
REMARK  142  A    between atoms: _348  and  _349
REMARK  143  A    between atoms: _352  and  _354
REMARK  144  A    between atoms: _354  and  _355
REMARK  145  A    between atoms: _354  and  _357
REMARK  146  A    between atoms: _357  and  _358
REMARK  147  A    between atoms: _361  and  _363
REMARK  148  A    between atoms: _363  and  _364
REMARK  149  A    between atoms: _363  and  _366
REMARK  150  A    between atoms: _366  and  _367
REMARK  151  A    between atoms: _367  and  _368
REMARK  152  A    between atoms: _371  and  _373
REMARK  153  A    between atoms: _373  and  _374
REMARK  154  A    between atoms: _373  and  _376
REMARK  155  A    between atoms: _376  and  _377
REMARK  156  A    between atoms: _380  and  _382
REMARK  157  A    between atoms: _382  and  _383
REMARK  158  A    between atoms: _385  and  _387
REMARK  159  A    between atoms: _387  and  _388
REMARK  160  A    between atoms: _387  and  _390
REMARK  161  A    between atoms: _390  and  _391
REMARK  162  A    between atoms: _391  and  _392
REMARK  163  A    between atoms: _395  and  _397
REMARK  164  A    between atoms: _397  and  _398
REMARK  165  A    between atoms: _397  and  _400
REMARK  166  A    between atoms: _400  and  _401
REMARK  167  A    between atoms: _401  and  _402
REMARK  168  A    between atoms: _405  and  _407
REMARK  169  A    between atoms: _407  and  _408
REMARK  170  A    between atoms: _407  and  _410
REMARK  171  A    between atoms: _410  and  _411
REMARK  172  A    between atoms: _411  and  _412
REMARK  173  A    between atoms: _417  and  _419
REMARK  174  A    between atoms: _419  and  _420
REMARK  175  A    between atoms: _419  and  _422
REMARK  176  A    between atoms: _422  and  _423
REMARK  177  A    between atoms: _423  and  _424
REMARK  178  A    between atoms: _429  and  _431
REMARK  179  A    between atoms: _431  and  _432
REMARK  180  A    between atoms: _431  and  _434
REMARK  181  A    between atoms: _434  and  _435
REMARK  182  A    between atoms: _435  and  _436
REMARK  183  A    between atoms: _436  and  _437
REMARK  184  A    between atoms: _446  and  _448
REMARK  185  A    between atoms: _448  and  _449
REMARK  186  A    between atoms: _448  and  _451
REMARK  187  A    between atoms: _451  and  _452
REMARK  188  A    between atoms: _457  and  _458
REMARK  189  A    between atoms: _460  and  _462
REMARK  190  A    between atoms: _462  and  _463
REMARK  191  A    between atoms: _462  and  _465
REMARK  192  A    between atoms: _465  and  _466
REMARK  193  A    between atoms: _466  and  _467
REMARK  194  A    between atoms: _467  and  _468
REMARK  195  A    between atoms: _468  and  _469
REMARK  196  A    between atoms: _473  and  _475
REMARK  197  A    between atoms: _475  and  _476
REMARK  198  A    between atoms: _475  and  _478
REMARK  199  A    between atoms: _478  and  _479
REMARK  200  A    between atoms: _482  and  _484
REMARK  201  A    between atoms: _484  and  _485
REMARK  202  A    between atoms: _487  and  _489
REMARK  203  A    between atoms: _489  and  _490
REMARK  204  A    between atoms: _489  and  _492
REMARK  205  A    between atoms: _492  and  _493
REMARK  206  A    between atoms: _496  and  _498
REMARK  207  A    between atoms: _498  and  _499
REMARK  208  A    between atoms: _498  and  _501
REMARK  209  A    between atoms: _501  and  _502
REMARK  210  A    between atoms: _502  and  _503
REMARK  211  A    between atoms: _503  and  _504
REMARK  212  A    between atoms: _513  and  _515
REMARK  213  A    between atoms: _515  and  _516
REMARK  214  A    between atoms: _515  and  _518
REMARK  215  A    between atoms: _518  and  _519
REMARK  216  A    between atoms: _519  and  _520
REMARK  217  A    between atoms: _523  and  _525
REMARK  218  A    between atoms: _525  and  _526
REMARK  219  A    between atoms: _525  and  _528
REMARK  220  A    between atoms: _528  and  _529
REMARK  221  A    between atoms: _529  and  _530
REMARK  222  A    between atoms: _530  and  _531
REMARK  223  A    between atoms: _540  and  _542
REMARK  224  A    between atoms: _542  and  _543
REMARK  225  A    between atoms: _542  and  _545
REMARK  226  A    between atoms: _548  and  _550
REMARK  227  A    between atoms: _550  and  _551
REMARK  228  A    between atoms: _550  and  _553
REMARK  229  A    between atoms: _553  and  _554
REMARK  230  A    between atoms: _554  and  _555
REMARK  231  A    between atoms: _558  and  _560
REMARK  232  A    between atoms: _560  and  _561
REMARK  233  A    between atoms: _560  and  _563
REMARK  234  A    between atoms: _563  and  _564
REMARK  235  A    between atoms: _567  and  _569
REMARK  236  A    between atoms: _569  and  _570
REMARK  237  A    between atoms: _569  and  _572
REMARK  238  A    between atoms: _572  and  _573
REMARK  239  A    between atoms: _573  and  _574
REMARK  240  A    between atoms: _577  and  _579
REMARK  241  A    between atoms: _579  and  _580
REMARK  242  A    between atoms: _579  and  _582
REMARK  243  A    between atoms: _582  and  _583
REMARK  244  A    between atoms: _583  and  _584
REMARK  245  A    between atoms: _589  and  _591
REMARK  246  A    between atoms: _591  and  _592
REMARK  247  A    between atoms: _594  and  _596
REMARK  248  A    between atoms: _596  and  _597
REMARK  249  A    between atoms: _596  and  _599
REMARK  250  A    between atoms: _599  and  _600
REMARK  251  A    between atoms: _600  and  _601
REMARK  252  A    between atoms: _606  and  _608
REMARK  253  A    between atoms: _608  and  _609
REMARK  254  A    between atoms: _608  and  _611
REMARK  255  A    between atoms: _611  and  _612
REMARK  256  A    between atoms: _615  and  _617
REMARK  257  A    between atoms: _617  and  _618
REMARK  258  A    between atoms: _617  and  _620
REMARK  259  A    between atoms: _620  and  _621
REMARK  260  A    between atoms: _627  and  _629
REMARK  261  A    between atoms: _629  and  _630
REMARK  262  A    between atoms: _632  and  _634
REMARK  263  A    between atoms: _634  and  _635
REMARK  264  A    between atoms: _634  and  _637
REMARK  265  A    between atoms: _637  and  _638
REMARK  266  A    between atoms: _638  and  _639
REMARK  267  A    between atoms: _643  and  _644
REMARK                            x       y       z     vdW  Elec       q    Type
REMARK                         _______ _______ _______ _____ _____    ______ ____
ROOT
ATOM      1  CA  LEU A   4      17.054  39.014  -0.433  0.00  0.00    +0.149 C 
ENDROOT
BRANCH   1   4
ATOM      2  C   GLN A   3      19.221  39.866   0.322  0.00  0.00    +0.241 C 
ATOM      3  O   GLN A   3      18.736  40.919   0.741  0.00  0.00    -0.273 OA
ATOM      4  N   LEU A   4      18.498  38.906  -0.254  0.00  0.00    -0.297 N 
ATOM      5  H   LEU A   4      18.981  38.048  -0.588  0.00  0.00    +0.150 HD
BRANCH   2   6
ATOM      6  CA  GLN A   3      20.717  39.592   0.476  0.00  0.00    +0.149 C 
BRANCH   6   9
ATOM      7  C   GLY A   2      20.630  37.282   1.249  0.00  0.00    +0.243 C 
ATOM      8  O   GLY A   2      19.786  37.549   2.113  0.00  0.00    -0.273 OA
ATOM      9  N   GLN A   3      21.085  38.178   0.383  0.00  0.00    -0.297 N 
ATOM     10  H   GLN A   3      21.719  37.868  -0.381  0.00  0.00    +0.150 HD
BRANCH   7  11
ATOM     11  CA  GLY A   2      21.205  35.888   1.096  0.00  0.00    +0.176 C 
BRANCH  11  13
ATOM     12  C   GLN A   1      20.593  33.600   1.625  0.00  0.00    +0.238 C 
ATOM     13  N   GLY A   2      20.660  34.882   1.987  0.00  0.00    -0.296 N 
ATOM     14  H   GLY A   2      20.315  35.166   2.926  0.00  0.00    +0.150 HD
ATOM     15  O   GLN A   1      20.885  33.200   0.492  0.00  0.00    -0.274 OA
BRANCH  12  16
ATOM     16  CA  GLN A   1      20.101  32.619   2.684  0.00  0.00    +0.145 C 
BRANCH  16  17
ATOM     17  N   GLN A   1      19.624  31.405   2.034  0.00  0.00    -0.238 NA
ATOM     18  H   GLN A   1      20.112  31.062   1.182  0.00  0.00    +0.142 HD
ENDBRANCH  16  17
BRANCH  16  19
ATOM     19  CB  GLN A   1      21.198  32.322   3.715  0.00  0.00    +0.036 C 
BRANCH  19  20
ATOM     20  CG  GLN A   1      22.570  32.092   3.137  0.00  0.00    +0.087 C 
BRANCH  20  21
ATOM     21  CD  GLN A   1      23.332  33.385   2.906  0.00  0.00    +0.219 C 
ATOM     22  NE2 GLN A   1      22.970  34.422   3.647  0.00  0.00    -0.329 N 
ATOM     23 HE21 GLN A   1      22.209  34.320   4.348  0.00  0.00    +0.145 HD
ATOM     24 HE22 GLN A   1      23.447  35.338   3.527  0.00  0.00    +0.145 HD
ATOM     25  OE1 GLN A   1      24.227  33.453   2.062  0.00  0.00    -0.275 OA
ENDBRANCH  20  21
ENDBRANCH  19  20
ENDBRANCH  16  19
ENDBRANCH  12  16
ENDBRANCH  11  13
ENDBRANCH   7  11
ENDBRANCH   6   9
BRANCH   6  26
ATOM     26  CB  GLN A   3      21.541  40.419  -0.513  0.00  0.00    +0.039 C 
BRANCH  26  27
ATOM     27  CG  GLN A   3      22.931  40.752   0.020  0.00  0.00    +0.087 C 
BRANCH  27  28
ATOM     28  CD  GLN A   3      23.884  41.190  -1.064  0.00  0.00    +0.219 C 
ATOM     29  NE2 GLN A   3      25.169  41.327  -0.711  0.00  0.00    -0.329 N 
ATOM     30 HE21 GLN A   3      25.461  41.143   0.270  0.00  0.00    +0.145 HD
ATOM     31 HE22 GLN A   3      25.874  41.617  -1.418  0.00  0.00    +0.145 HD
ATOM     32  OE1 GLN A   3      23.482  41.395  -2.213  0.00  0.00    -0.275 OA
ENDBRANCH  27  28
ENDBRANCH  26  27
ENDBRANCH   6  26
ENDBRANCH   2   6
ENDBRANCH   1   4
BRANCH   1  33
ATOM     33  C   LEU A   4      16.314  39.082   0.905  0.00  0.00    +0.241 C 
ATOM     34  N   PHE A   5      16.904  38.523   1.956  0.00  0.00    -0.297 N 
ATOM     35  H   PHE A   5      17.819  38.042   1.844  0.00  0.00    +0.150 HD
ATOM     36  O   LEU A   4      15.205  39.615   0.984  0.00  0.00    -0.273 OA
BRANCH  34  37
ATOM     37  CA  PHE A   5      16.266  38.584   3.270  0.00  0.00    +0.153 C 
BRANCH  37  38
ATOM     38  C   PHE A   5      16.924  39.638   4.154  0.00  0.00    +0.241 C 
ATOM     39  O   PHE A   5      16.722  39.652   5.369  0.00  0.00    -0.273 OA
ATOM     40  N   GLY A   6      17.704  40.520   3.535  0.00  0.00    -0.295 N 
ATOM     41  H   GLY A   6      17.853  40.437   2.509  0.00  0.00    +0.150 HD
BRANCH  40  42
ATOM     42  CA  GLY A   6      18.348  41.590   4.260  0.00  0.00    +0.176 C 
BRANCH  42  43
ATOM     43  C   GLY A   6      19.855  41.492   4.269  0.00  0.00    +0.243 C 
ATOM     44  N   GLU A   7      20.483  42.600   4.637  0.00  0.00    -0.297 N 
ATOM     45  H   GLU A   7      19.909  43.443   4.842  0.00  0.00    +0.150 HD
ATOM     46  O   GLY A   6      20.430  40.449   3.957  0.00  0.00    -0.273 OA
BRANCH  44  47
ATOM     47  CA  GLU A   7      21.925  42.706   4.770  0.00  0.00    +0.149 C 
BRANCH  47  48
ATOM     48  C   GLU A   7      22.350  42.168   6.127  0.00  0.00    +0.244 C 
ATOM     49  O   GLU A   7      21.526  42.046   7.035  0.00  0.00    -0.273 OA
ATOM     50  N   PRO A   8      23.639  41.843   6.273  0.00  0.00    -0.273 N 
ATOM     51  CA  PRO A   8      24.134  41.479   7.603  0.00  0.00    +0.140 C 
ATOM     52  CB  PRO A   8      25.620  41.209   7.360  0.00  0.00    +0.030 C 
ATOM     53  CG  PRO A   8      25.723  40.882   5.898  0.00  0.00    +0.024 C 
ATOM     54  CD  PRO A   8      24.660  41.688   5.221  0.00  0.00    +0.094 C 
BRANCH  51  55
ATOM     55  C   PRO A   8      23.951  42.643   8.588  0.00  0.00    +0.227 C 
ATOM     56  O   PRO A   8      24.433  43.750   8.328  0.00  0.00    -0.286 OA
ENDBRANCH  51  55
ENDBRANCH  47  48
BRANCH  47  57
ATOM     57  CB  GLU A   7      22.348  44.175   4.673  0.00  0.00    +0.041 C 
BRANCH  57  58
ATOM     58  CG  GLU A   7      22.084  44.828   3.334  0.00  0.00    +0.116 C 
BRANCH  58  59
ATOM     59  CD  GLU A   7      22.924  44.233   2.198  0.00  0.00    +0.365 C 
ATOM     60  OE2 GLU A   7      24.157  44.017   2.376  0.00  0.00    -0.246 OA
ATOM     61  OE1 GLU A   7      22.337  43.983   1.117  0.00  0.00    -0.246 OA
ENDBRANCH  58  59
ENDBRANCH  57  58
ENDBRANCH  47  57
ENDBRANCH  44  47
ENDBRANCH  42  43
ENDBRANCH  40  42
ENDBRANCH  37  38
BRANCH  37  62
ATOM     62  CB  PHE A   5      16.296  37.219   3.942  0.00  0.00    +0.055 C 
BRANCH  62  63
ATOM     63  CG  PHE A   5      15.926  36.114   3.023  0.00  0.00    -0.020 A 
ATOM     64  CD2 PHE A   5      14.591  35.879   2.707  0.00  0.00    -0.004 A 
ATOM     65  CE2 PHE A   5      14.243  34.871   1.831  0.00  0.00    -0.000 A 
ATOM     66  CZ  PHE A   5      15.232  34.100   1.248  0.00  0.00    -0.000 A 
ATOM     67  CE1 PHE A   5      16.569  34.337   1.550  0.00  0.00    -0.000 A 
ATOM     68  CD1 PHE A   5      16.906  35.336   2.433  0.00  0.00    -0.004 A 
ENDBRANCH  62  63
ENDBRANCH  37  62
ENDBRANCH  34  37
ENDBRANCH   1  33
BRANCH   1  69
ATOM     69  CB  LEU A   4      16.523  37.834  -1.268  0.00  0.00    +0.029 C 
BRANCH  69  70
ATOM     70  CG  LEU A   4      15.020  37.770  -1.592  0.00  0.00    +0.002 C 
ATOM     71  CD2 LEU A   4      14.615  36.381  -2.063  0.00  0.00    +0.000 C 
ATOM     72  CD1 LEU A   4      14.658  38.800  -2.643  0.00  0.00    +0.000 C 
ENDBRANCH  69  70
ENDBRANCH   1  69
TORSDOF 28
REMARK  Name = ../refined-set-2016/3pju/3pju_pocket.pdb
REMARK  267 active torsions:
REMARK  status: ('A' for Active; 'I' for Inactive)
REMARK    1  A    between atoms: _1  and  _3
REMARK    2  A    between atoms: _3  and  _4
REMARK    3  A    between atoms: _3  and  _6
REMARK    4  A    between atoms: _6  and  _7
REMARK    5  A    between atoms: _13  and  _15
REMARK    6  A    between atoms: _15  and  _16
REMARK    7  A    between atoms: _15  and  _18
REMARK    8  A    between atoms: _18  and  _19
REMARK    9  A    between atoms: _19  and  _20
REMARK   10  A    between atoms: _23  and  _25
REMARK   11  A    between atoms: _25  and  _26
REMARK   12  A    between atoms: _25  and  _28
REMARK   13  A    between atoms: _28  and  _29
REMARK   14  A    between atoms: _32  and  _34
REMARK   15  A    between atoms: _34  and  _35
REMARK   16  A    between atoms: _34  and  _37
REMARK   17  A    between atoms: _37  and  _38
REMARK   18  A    between atoms: _44  and  _46
REMARK   19  A    between atoms: _46  and  _47
REMARK   20  A    between atoms: _46  and  _49
REMARK   21  A    between atoms: _49  and  _50
REMARK   22  A    between atoms: _50  and  _51
REMARK   23  A    between atoms: _56  and  _58
REMARK   24  A    between atoms: _58  and  _59
REMARK   25  A    between atoms: _58  and  _61
REMARK   26  A    between atoms: _64  and  _66
REMARK   27  A    between atoms: _66  and  _67
REMARK   28  A    between atoms: _66  and  _69
REMARK   29  A    between atoms: _69  and  _70
REMARK   30  A    between atoms: _70  and  _71
REMARK   31  A    between atoms: _71  and  _72
REMARK   32  A    between atoms: _72  and  _73
REMARK   33  A    between atoms: _77  and  _79
REMARK   34  A    between atoms: _79  and  _80
REMARK   35  A    between atoms: _79  and  _82
REMARK   36  A    between atoms: _85  and  _87
REMARK   37  A    between atoms: _87  and  _88
REMARK   38  A    between atoms: _87  and  _90
REMARK   39  A    between atoms: _90  and  _91
REMARK   40  A    between atoms: _94  and  _96
REMARK   41  A    between atoms: _96  and  _97
REMARK   42  A    between atoms: _96  and  _99
REMARK   43  A    between atoms: _99  and  _100
REMARK   44  A    between atoms: _102  and  _104
REMARK   45  A    between atoms: _104  and  _105
REMARK   46  A    between atoms: _104  and  _107
REMARK   47  A    between atoms: _107  and  _108
REMARK   48  A    between atoms: _108  and  _109
REMARK   49  A    between atoms: _109  and  _110
REMARK   50  A    between atoms: _119  and  _121
REMARK   51  A    between atoms: _121  and  _122
REMARK   52  A    between atoms: _121  and  _124
REMARK   53  A    between atoms: _124  and  _125
REMARK   54  A    between atoms: _129  and  _130
REMARK   55  A    between atoms: _135  and  _137
REMARK   56  A    between atoms: _137  and  _138
REMARK   57  A    between atoms: _141  and  _143
REMARK   58  A    between atoms: _143  and  _144
REMARK   59  A    between atoms: _146  and  _148
REMARK   60  A    between atoms: _148  and  _149
REMARK   61  A    between atoms: _148  and  _151
REMARK   62  A    between atoms: _151  and  _152
REMARK   63  A    between atoms: _152  and  _153
REMARK   64  A    between atoms: _153  and  _154
REMARK   65  A    between atoms: _163  and  _165
REMARK   66  A    between atoms: _165  and  _166
REMARK   67  A    between atoms: _165  and  _168
REMARK   68  A    between atoms: _168  and  _169
REMARK   69  A    between atoms: _175  and  _177
REMARK   70  A    between atoms: _177  and  _178
REMARK   71  A    between atoms: _177  and  _180
REMARK   72  A    between atoms: _180  and  _181
REMARK   73  A    between atoms: _185  and  _186
REMARK   74  A    between atoms: _191  and  _193
REMARK   75  A    between atoms: _193  and  _194
REMARK   76  A    between atoms: _193  and  _196
REMARK   77  A    between atoms: _196  and  _197
REMARK   78  A    between atoms: _200  and  _202
REMARK   79  A    between atoms: _202  and  _203
REMARK   80  A    between atoms: _202  and  _205
REMARK   81  A    between atoms: _205  and  _206
REMARK   82  A    between atoms: _206  and  _207
REMARK   83  A    between atoms: _210  and  _212
REMARK   84  A    between atoms: _212  and  _213
REMARK   85  A    between atoms: _212  and  _215
REMARK   86  A    between atoms: _215  and  _216
REMARK   87  A    between atoms: _219  and  _221
REMARK   88  A    between atoms: _221  and  _222
REMARK   89  A    between atoms: _225  and  _227
REMARK   90  A    between atoms: _227  and  _228
REMARK   91  A    between atoms: _227  and  _230
REMARK   92  A    between atoms: _230  and  _231
REMARK   93  A    between atoms: _234  and  _236
REMARK   94  A    between atoms: _236  and  _237
REMARK   95  A    between atoms: _236  and  _239
REMARK   96  A    between atoms: _239  and  _240
REMARK   97  A    between atoms: _243  and  _245
REMARK   98  A    between atoms: _245  and  _246
REMARK   99  A    between atoms: _245  and  _248
REMARK  100  A    between atoms: _248  and  _249
REMARK  101  A    between atoms: _249  and  _250
REMARK  102  A    between atoms: _250  and  _251
REMARK  103  A    between atoms: _260  and  _262
REMARK  104  A    between atoms: _262  and  _263
REMARK  105  A    between atoms: _262  and  _265
REMARK  106  A    between atoms: _265  and  _266
REMARK  107  A    between atoms: _269  and  _271
REMARK  108  A    between atoms: _271  and  _272
REMARK  109  A    between atoms: _271  and  _274
REMARK  110  A    between atoms: _274  and  _275
REMARK  111  A    between atoms: _275  and  _276
REMARK  112  A    between atoms: _278  and  _280
REMARK  113  A    between atoms: _280  and  _281
REMARK  114  A    between atoms: _280  and  _283
REMARK  115  A    between atoms: _283  and  _284
REMARK  116  A    between atoms: _287  and  _289
REMARK  117  A    between atoms: _289  and  _290
REMARK  118  A    between atoms: _289  and  _292
REMARK  119  A    between atoms: _295  and  _297
REMARK  120  A    between atoms: _297  and  _298
REMARK  121  A    between atoms: _301  and  _303
REMARK  122  A    between atoms: _303  and  _304
REMARK  123  A    between atoms: _303  and  _306
REMARK  124  A    between atoms: _306  and  _307
REMARK  125  A    between atoms: _310  and  _312
REMARK  126  A    between atoms: _312  and  _313
REMARK  127  A    between atoms: _312  and  _315
REMARK  128  A    between atoms: _315  and  _316
REMARK  129  A    between atoms: _321  and  _323
REMARK  130  A    between atoms: _323  and  _324
REMARK  131  A    between atoms: _323  and  _326
REMARK  132  A    between atoms: _326  and  _327
REMARK  133  A    between atoms: _330  and  _332
REMARK  134  A    between atoms: _332  and  _333
REMARK  135  A    between atoms: _332  and  _335
REMARK  136  A    between atoms: _335  and  _336
REMARK  137  A    between atoms: _338  and  _340
REMARK  138  A    between atoms: _340  and  _341
REMARK  139  A    between atoms: _340  and  _343
REMARK  140  A    between atoms: _343  and  _344
REMARK  141  A    between atoms: _346  and  _348
REMARK  142  A    between atoms: _348  and  _349
REMARK  143  A    between atoms: _352  and  _354
REMARK  144  A    between atoms: _354  and  _355
REMARK  145  A    between atoms: _354  and  _357
REMARK  146  A    between atoms: _357  and  _358
REMARK  147  A    between atoms: _361  and  _363
REMARK  148  A    between atoms: _363  and  _364
REMARK  149  A    between atoms: _363  and  _366
REMARK  150  A    between atoms: _366  and  _367
REMARK  151  A    between atoms: _367  and  _368
REMARK  152  A    between atoms: _371  and  _373
REMARK  153  A    between atoms: _373  and  _374
REMARK  154  A    between atoms: _373  and  _376
REMARK  155  A    between atoms: _376  and  _377
REMARK  156  A    between atoms: _380  and  _382
REMARK  157  A    between atoms: _382  and  _383
REMARK  158  A    between atoms: _385  and  _387
REMARK  159  A    between atoms: _387  and  _388
REMARK  160  A    between atoms: _387  and  _390
REMARK  161  A    between atoms: _390  and  _391
REMARK  162  A    between atoms: _391  and  _392
REMARK  163  A    between atoms: _395  and  _397
REMARK  164  A    between atoms: _397  and  _398
REMARK  165  A    between atoms: _397  and  _400
REMARK  166  A    between atoms: _400  and  _401
REMARK  167  A    between atoms: _401  and  _402
REMARK  168  A    between atoms: _405  and  _407
REMARK  169  A    between atoms: _407  and  _408
REMARK  170  A    between atoms: _407  and  _410
REMARK  171  A    between atoms: _410  and  _411
REMARK  172  A    between atoms: _411  and  _412
REMARK  173  A    between atoms: _417  and  _419
REMARK  174  A    between atoms: _419  and  _420
REMARK  175  A    between atoms: _419  and  _422
REMARK  176  A    between atoms: _422  and  _423
REMARK  177  A    between atoms: _423  and  _424
REMARK  178  A    between atoms: _429  and  _431
REMARK  179  A    between atoms: _431  and  _432
REMARK  180  A    between atoms: _431  and  _434
REMARK  181  A    between atoms: _434  and  _435
REMARK  182  A    between atoms: _435  and  _436
REMARK  183  A    between atoms: _436  and  _437
REMARK  184  A    between atoms: _446  and  _448
REMARK  185  A    between atoms: _448  and  _449
REMARK  186  A    between atoms: _448  and  _451
REMARK  187  A    between atoms: _451  and  _452
REMARK  188  A    between atoms: _457  and  _458
REMARK  189  A    between atoms: _460  and  _462
REMARK  190  A    between atoms: _462  and  _463
REMARK  191  A    between atoms: _462  and  _465
REMARK  192  A    between atoms: _465  and  _466
REMARK  193  A    between atoms: _466  and  _467
REMARK  194  A    between atoms: _467  and  _468
REMARK  195  A    between atoms: _468  and  _469
REMARK  196  A    between atoms: _473  and  _475
REMARK  197  A    between atoms: _475  and  _476
REMARK  198  A    between atoms: _475  and  _478
REMARK  199  A    between atoms: _478  and  _479
REMARK  200  A    between atoms: _482  and  _484
REMARK  201  A    between atoms: _484  and  _485
REMARK  202  A    between atoms: _487  and  _489
REMARK  203  A    between atoms: _489  and  _490
REMARK  204  A    between atoms: _489  and  _492
REMARK  205  A    between atoms: _492  and  _493
REMARK  206  A    between atoms: _496  and  _498
REMARK  207  A    between atoms: _498  and  _499
REMARK  208  A    between atoms: _498  and  _501
REMARK  209  A    between atoms: _501  and  _502
REMARK  210  A    between atoms: _502  and  _503
REMARK  211  A    between atoms: _503  and  _504
REMARK  212  A    between atoms: _513  and  _515
REMARK  213  A    between atoms: _515  and  _516
REMARK  214  A    between atoms: _515  and  _518
REMARK  215  A    between atoms: _518  and  _519
REMARK  216  A    between atoms: _519  and  _520
REMARK  217  A    between atoms: _523  and  _525
REMARK  218  A    between atoms: _525  and  _526
REMARK  219  A    between atoms: _525  and  _528
REMARK  220  A    between atoms: _528  and  _529
REMARK  221  A    between atoms: _529  and  _530
REMARK  222  A    between atoms: _530  and  _531
REMARK  223  A    between atoms: _540  and  _542
REMARK  224  A    between atoms: _542  and  _543
REMARK  225  A    between atoms: _542  and  _545
REMARK  226  A    between atoms: _548  and  _550
REMARK  227  A    between atoms: _550  and  _551
REMARK  228  A    between atoms: _550  and  _553
REMARK  229  A    between atoms: _553  and  _554
REMARK  230  A    between atoms: _554  and  _555
REMARK  231  A    between atoms: _558  and  _560
REMARK  232  A    between atoms: _560  and  _561
REMARK  233  A    between atoms: _560  and  _563
REMARK  234  A    between atoms: _563  and  _564
REMARK  235  A    between atoms: _567  and  _569
REMARK  236  A    between atoms: _569  and  _570
REMARK  237  A    between atoms: _569  and  _572
REMARK  238  A    between atoms: _572  and  _573
REMARK  239  A    between atoms: _573  and  _574
REMARK  240  A    between atoms: _577  and  _579
REMARK  241  A    between atoms: _579  and  _580
REMARK  242  A    between atoms: _579  and  _582
REMARK  243  A    between atoms: _582  and  _583
REMARK  244  A    between atoms: _583  and  _584
REMARK  245  A    between atoms: _589  and  _591
REMARK  246  A    between atoms: _591  and  _592
REMARK  247  A    between atoms: _594  and  _596
REMARK  248  A    between atoms: _596  and  _597
REMARK  249  A    between atoms: _596  and  _599
REMARK  250  A    between atoms: _599  and  _600
REMARK  251  A    between atoms: _600  and  _601
REMARK  252  A    between atoms: _606  and  _608
REMARK  253  A    between atoms: _608  and  _609
REMARK  254  A    between atoms: _608  and  _611
REMARK  255  A    between atoms: _611  and  _612
REMARK  256  A    between atoms: _615  and  _617
REMARK  257  A    between atoms: _617  and  _618
REMARK  258  A    between atoms: _617  and  _620
REMARK  259  A    between atoms: _620  and  _621
REMARK  260  A    between atoms: _627  and  _629
REMARK  261  A    between atoms: _629  and  _630
REMARK  262  A    between atoms: _632  and  _634
REMARK  263  A    between atoms: _634  and  _635
REMARK  264  A    between atoms: _634  and  _637
REMARK  265  A    between atoms: _637  and  _638
REMARK  266  A    between atoms: _638  and  _639
REMARK  267  A    between atoms: _643  and  _644
REMARK                            x       y       z     vdW  Elec       q    Type
REMARK                         _______ _______ _______ _____ _____    ______ ____
ROOT
ATOM      1  O   HOH     1      29.721  32.107   1.319  0.00  0.00    +0.000 OA
ENDROOT
TORSDOF 0
REMARK  Name = ../refined-set-2016/3pju/3pju_pocket.pdb
REMARK  267 active torsions:
REMARK  status: ('A' for Active; 'I' for Inactive)
REMARK    1  A    between atoms: _1  and  _3
REMARK    2  A    between atoms: _3  and  _4
REMARK    3  A    between atoms: _3  and  _6
REMARK    4  A    between atoms: _6  and  _7
REMARK    5  A    between atoms: _13  and  _15
REMARK    6  A    between atoms: _15  and  _16
REMARK    7  A    between atoms: _15  and  _18
REMARK    8  A    between atoms: _18  and  _19
REMARK    9  A    between atoms: _19  and  _20
REMARK   10  A    between atoms: _23  and  _25
REMARK   11  A    between atoms: _25  and  _26
REMARK   12  A    between atoms: _25  and  _28
REMARK   13  A    between atoms: _28  and  _29
REMARK   14  A    between atoms: _32  and  _34
REMARK   15  A    between atoms: _34  and  _35
REMARK   16  A    between atoms: _34  and  _37
REMARK   17  A    between atoms: _37  and  _38
REMARK   18  A    between atoms: _44  and  _46
REMARK   19  A    between atoms: _46  and  _47
REMARK   20  A    between atoms: _46  and  _49
REMARK   21  A    between atoms: _49  and  _50
REMARK   22  A    between atoms: _50  and  _51
REMARK   23  A    between atoms: _56  and  _58
REMARK   24  A    between atoms: _58  and  _59
REMARK   25  A    between atoms: _58  and  _61
REMARK   26  A    between atoms: _64  and  _66
REMARK   27  A    between atoms: _66  and  _67
REMARK   28  A    between atoms: _66  and  _69
REMARK   29  A    between atoms: _69  and  _70
REMARK   30  A    between atoms: _70  and  _71
REMARK   31  A    between atoms: _71  and  _72
REMARK   32  A    between atoms: _72  and  _73
REMARK   33  A    between atoms: _77  and  _79
REMARK   34  A    between atoms: _79  and  _80
REMARK   35  A    between atoms: _79  and  _82
REMARK   36  A    between atoms: _85  and  _87
REMARK   37  A    between atoms: _87  and  _88
REMARK   38  A    between atoms: _87  and  _90
REMARK   39  A    between atoms: _90  and  _91
REMARK   40  A    between atoms: _94  and  _96
REMARK   41  A    between atoms: _96  and  _97
REMARK   42  A    between atoms: _96  and  _99
REMARK   43  A    between atoms: _99  and  _100
REMARK   44  A    between atoms: _102  and  _104
REMARK   45  A    between atoms: _104  and  _105
REMARK   46  A    between atoms: _104  and  _107
REMARK   47  A    between atoms: _107  and  _108
REMARK   48  A    between atoms: _108  and  _109
REMARK   49  A    between atoms: _109  and  _110
REMARK   50  A    between atoms: _119  and  _121
REMARK   51  A    between atoms: _121  and  _122
REMARK   52  A    between atoms: _121  and  _124
REMARK   53  A    between atoms: _124  and  _125
REMARK   54  A    between atoms: _129  and  _130
REMARK   55  A    between atoms: _135  and  _137
REMARK   56  A    between atoms: _137  and  _138
REMARK   57  A    between atoms: _141  and  _143
REMARK   58  A    between atoms: _143  and  _144
REMARK   59  A    between atoms: _146  and  _148
REMARK   60  A    between atoms: _148  and  _149
REMARK   61  A    between atoms: _148  and  _151
REMARK   62  A    between atoms: _151  and  _152
REMARK   63  A    between atoms: _152  and  _153
REMARK   64  A    between atoms: _153  and  _154
REMARK   65  A    between atoms: _163  and  _165
REMARK   66  A    between atoms: _165  and  _166
REMARK   67  A    between atoms: _165  and  _168
REMARK   68  A    between atoms: _168  and  _169
REMARK   69  A    between atoms: _175  and  _177
REMARK   70  A    between atoms: _177  and  _178
REMARK   71  A    between atoms: _177  and  _180
REMARK   72  A    between atoms: _180  and  _181
REMARK   73  A    between atoms: _185  and  _186
REMARK   74  A    between atoms: _191  and  _193
REMARK   75  A    between atoms: _193  and  _194
REMARK   76  A    between atoms: _193  and  _196
REMARK   77  A    between atoms: _196  and  _197
REMARK   78  A    between atoms: _200  and  _202
REMARK   79  A    between atoms: _202  and  _203
REMARK   80  A    between atoms: _202  and  _205
REMARK   81  A    between atoms: _205  and  _206
REMARK   82  A    between atoms: _206  and  _207
REMARK   83  A    between atoms: _210  and  _212
REMARK   84  A    between atoms: _212  and  _213
REMARK   85  A    between atoms: _212  and  _215
REMARK   86  A    between atoms: _215  and  _216
REMARK   87  A    between atoms: _219  and  _221
REMARK   88  A    between atoms: _221  and  _222
REMARK   89  A    between atoms: _225  and  _227
REMARK   90  A    between atoms: _227  and  _228
REMARK   91  A    between atoms: _227  and  _230
REMARK   92  A    between atoms: _230  and  _231
REMARK   93  A    between atoms: _234  and  _236
REMARK   94  A    between atoms: _236  and  _237
REMARK   95  A    between atoms: _236  and  _239
REMARK   96  A    between atoms: _239  and  _240
REMARK   97  A    between atoms: _243  and  _245
REMARK   98  A    between atoms: _245  and  _246
REMARK   99  A    between atoms: _245  and  _248
REMARK  100  A    between atoms: _248  and  _249
REMARK  101  A    between atoms: _249  and  _250
REMARK  102  A    between atoms: _250  and  _251
REMARK  103  A    between atoms: _260  and  _262
REMARK  104  A    between atoms: _262  and  _263
REMARK  105  A    between atoms: _262  and  _265
REMARK  106  A    between atoms: _265  and  _266
REMARK  107  A    between atoms: _269  and  _271
REMARK  108  A    between atoms: _271  and  _272
REMARK  109  A    between atoms: _271  and  _274
REMARK  110  A    between atoms: _274  and  _275
REMARK  111  A    between atoms: _275  and  _276
REMARK  112  A    between atoms: _278  and  _280
REMARK  113  A    between atoms: _280  and  _281
REMARK  114  A    between atoms: _280  and  _283
REMARK  115  A    between atoms: _283  and  _284
REMARK  116  A    between atoms: _287  and  _289
REMARK  117  A    between atoms: _289  and  _290
REMARK  118  A    between atoms: _289  and  _292
REMARK  119  A    between atoms: _295  and  _297
REMARK  120  A    between atoms: _297  and  _298
REMARK  121  A    between atoms: _301  and  _303
REMARK  122  A    between atoms: _303  and  _304
REMARK  123  A    between atoms: _303  and  _306
REMARK  124  A    between atoms: _306  and  _307
REMARK  125  A    between atoms: _310  and  _312
REMARK  126  A    between atoms: _312  and  _313
REMARK  127  A    between atoms: _312  and  _315
REMARK  128  A    between atoms: _315  and  _316
REMARK  129  A    between atoms: _321  and  _323
REMARK  130  A    between atoms: _323  and  _324
REMARK  131  A    between atoms: _323  and  _326
REMARK  132  A    between atoms: _326  and  _327
REMARK  133  A    between atoms: _330  and  _332
REMARK  134  A    between atoms: _332  and  _333
REMARK  135  A    between atoms: _332  and  _335
REMARK  136  A    between atoms: _335  and  _336
REMARK  137  A    between atoms: _338  and  _340
REMARK  138  A    between atoms: _340  and  _341
REMARK  139  A    between atoms: _340  and  _343
REMARK  140  A    between atoms: _343  and  _344
REMARK  141  A    between atoms: _346  and  _348
REMARK  142  A    between atoms: _348  and  _349
REMARK  143  A    between atoms: _352  and  _354
REMARK  144  A    between atoms: _354  and  _355
REMARK  145  A    between atoms: _354  and  _357
REMARK  146  A    between atoms: _357  and  _358
REMARK  147  A    between atoms: _361  and  _363
REMARK  148  A    between atoms: _363  and  _364
REMARK  149  A    between atoms: _363  and  _366
REMARK  150  A    between atoms: _366  and  _367
REMARK  151  A    between atoms: _367  and  _368
REMARK  152  A    between atoms: _371  and  _373
REMARK  153  A    between atoms: _373  and  _374
REMARK  154  A    between atoms: _373  and  _376
REMARK  155  A    between atoms: _376  and  _377
REMARK  156  A    between atoms: _380  and  _382
REMARK  157  A    between atoms: _382  and  _383
REMARK  158  A    between atoms: _385  and  _387
REMARK  159  A    between atoms: _387  and  _388
REMARK  160  A    between atoms: _387  and  _390
REMARK  161  A    between atoms: _390  and  _391
REMARK  162  A    between atoms: _391  and  _392
REMARK  163  A    between atoms: _395  and  _397
REMARK  164  A    between atoms: _397  and  _398
REMARK  165  A    between atoms: _397  and  _400
REMARK  166  A    between atoms: _400  and  _401
REMARK  167  A    between atoms: _401  and  _402
REMARK  168  A    between atoms: _405  and  _407
REMARK  169  A    between atoms: _407  and  _408
REMARK  170  A    between atoms: _407  and  _410
REMARK  171  A    between atoms: _410  and  _411
REMARK  172  A    between atoms: _411  and  _412
REMARK  173  A    between atoms: _417  and  _419
REMARK  174  A    between atoms: _419  and  _420
REMARK  175  A    between atoms: _419  and  _422
REMARK  176  A    between atoms: _422  and  _423
REMARK  177  A    between atoms: _423  and  _424
REMARK  178  A    between atoms: _429  and  _431
REMARK  179  A    between atoms: _431  and  _432
REMARK  180  A    between atoms: _431  and  _434
REMARK  181  A    between atoms: _434  and  _435
REMARK  182  A    between atoms: _435  and  _436
REMARK  183  A    between atoms: _436  and  _437
REMARK  184  A    between atoms: _446  and  _448
REMARK  185  A    between atoms: _448  and  _449
REMARK  186  A    between atoms: _448  and  _451
REMARK  187  A    between atoms: _451  and  _452
REMARK  188  A    between atoms: _457  and  _458
REMARK  189  A    between atoms: _460  and  _462
REMARK  190  A    between atoms: _462  and  _463
REMARK  191  A    between atoms: _462  and  _465
REMARK  192  A    between atoms: _465  and  _466
REMARK  193  A    between atoms: _466  and  _467
REMARK  194  A    between atoms: _467  and  _468
REMARK  195  A    between atoms: _468  and  _469
REMARK  196  A    between atoms: _473  and  _475
REMARK  197  A    between atoms: _475  and  _476
REMARK  198  A    between atoms: _475  and  _478
REMARK  199  A    between atoms: _478  and  _479
REMARK  200  A    between atoms: _482  and  _484
REMARK  201  A    between atoms: _484  and  _485
REMARK  202  A    between atoms: _487  and  _489
REMARK  203  A    between atoms: _489  and  _490
REMARK  204  A    between atoms: _489  and  _492
REMARK  205  A    between atoms: _492  and  _493
REMARK  206  A    between atoms: _496  and  _498
REMARK  207  A    between atoms: _498  and  _499
REMARK  208  A    between atoms: _498  and  _501
REMARK  209  A    between atoms: _501  and  _502
REMARK  210  A    between atoms: _502  and  _503
REMARK  211  A    between atoms: _503  and  _504
REMARK  212  A    between atoms: _513  and  _515
REMARK  213  A    between atoms: _515  and  _516
REMARK  214  A    between atoms: _515  and  _518
REMARK  215  A    between atoms: _518  and  _519
REMARK  216  A    between atoms: _519  and  _520
REMARK  217  A    between atoms: _523  and  _525
REMARK  218  A    between atoms: _525  and  _526
REMARK  219  A    between atoms: _525  and  _528
REMARK  220  A    between atoms: _528  and  _529
REMARK  221  A    between atoms: _529  and  _530
REMARK  222  A    between atoms: _530  and  _531
REMARK  223  A    between atoms: _540  and  _542
REMARK  224  A    between atoms: _542  and  _543
REMARK  225  A    between atoms: _542  and  _545
REMARK  226  A    between atoms: _548  and  _550
REMARK  227  A    between atoms: _550  and  _551
REMARK  228  A    between atoms: _550  and  _553
REMARK  229  A    between atoms: _553  and  _554
REMARK  230  A    between atoms: _554  and  _555
REMARK  231  A    between atoms: _558  and  _560
REMARK  232  A    between atoms: _560  and  _561
REMARK  233  A    between atoms: _560  and  _563
REMARK  234  A    between atoms: _563  and  _564
REMARK  235  A    between atoms: _567  and  _569
REMARK  236  A    between atoms: _569  and  _570
REMARK  237  A    between atoms: _569  and  _572
REMARK  238  A    between atoms: _572  and  _573
REMARK  239  A    between atoms: _573  and  _574
REMARK  240  A    between atoms: _577  and  _579
REMARK  241  A    between atoms: _579  and  _580
REMARK  242  A    between atoms: _579  and  _582
REMARK  243  A    between atoms: _582  and  _583
REMARK  244  A    between atoms: _583  and  _584
REMARK  245  A    between atoms: _589  and  _591
REMARK  246  A    between atoms: _591  and  _592
REMARK  247  A    between atoms: _594  and  _596
REMARK  248  A    between atoms: _596  and  _597
REMARK  249  A    between atoms: _596  and  _599
REMARK  250  A    between atoms: _599  and  _600
REMARK  251  A    between atoms: _600  and  _601
REMARK  252  A    between atoms: _606  and  _608
REMARK  253  A    between atoms: _608  and  _609
REMARK  254  A    between atoms: _608  and  _611
REMARK  255  A    between atoms: _611  and  _612
REMARK  256  A    between atoms: _615  and  _617
REMARK  257  A    between atoms: _617  and  _618
REMARK  258  A    between atoms: _617  and  _620
REMARK  259  A    between atoms: _620  and  _621
REMARK  260  A    between atoms: _627  and  _629
REMARK  261  A    between atoms: _629  and  _630
REMARK  262  A    between atoms: _632  and  _634
REMARK  263  A    between atoms: _634  and  _635
REMARK  264  A    between atoms: _634  and  _637
REMARK  265  A    between atoms: _637  and  _638
REMARK  266  A    between atoms: _638  and  _639
REMARK  267  A    between atoms: _643  and  _644
REMARK                            x       y       z     vdW  Elec       q    Type
REMARK                         _______ _______ _______ _____ _____    ______ ____
ROOT
ATOM      1  O   HOH     1      25.719  31.736   3.763  0.00  0.00    +0.000 OA
ENDROOT
TORSDOF 0
REMARK  Name = ../refined-set-2016/3pju/3pju_pocket.pdb
REMARK  267 active torsions:
REMARK  status: ('A' for Active; 'I' for Inactive)
REMARK    1  A    between atoms: _1  and  _3
REMARK    2  A    between atoms: _3  and  _4
REMARK    3  A    between atoms: _3  and  _6
REMARK    4  A    between atoms: _6  and  _7
REMARK    5  A    between atoms: _13  and  _15
REMARK    6  A    between atoms: _15  and  _16
REMARK    7  A    between atoms: _15  and  _18
REMARK    8  A    between atoms: _18  and  _19
REMARK    9  A    between atoms: _19  and  _20
REMARK   10  A    between atoms: _23  and  _25
REMARK   11  A    between atoms: _25  and  _26
REMARK   12  A    between atoms: _25  and  _28
REMARK   13  A    between atoms: _28  and  _29
REMARK   14  A    between atoms: _32  and  _34
REMARK   15  A    between atoms: _34  and  _35
REMARK   16  A    between atoms: _34  and  _37
REMARK   17  A    between atoms: _37  and  _38
REMARK   18  A    between atoms: _44  and  _46
REMARK   19  A    between atoms: _46  and  _47
REMARK   20  A    between atoms: _46  and  _49
REMARK   21  A    between atoms: _49  and  _50
REMARK   22  A    between atoms: _50  and  _51
REMARK   23  A    between atoms: _56  and  _58
REMARK   24  A    between atoms: _58  and  _59
REMARK   25  A    between atoms: _58  and  _61
REMARK   26  A    between atoms: _64  and  _66
REMARK   27  A    between atoms: _66  and  _67
REMARK   28  A    between atoms: _66  and  _69
REMARK   29  A    between atoms: _69  and  _70
REMARK   30  A    between atoms: _70  and  _71
REMARK   31  A    between atoms: _71  and  _72
REMARK   32  A    between atoms: _72  and  _73
REMARK   33  A    between atoms: _77  and  _79
REMARK   34  A    between atoms: _79  and  _80
REMARK   35  A    between atoms: _79  and  _82
REMARK   36  A    between atoms: _85  and  _87
REMARK   37  A    between atoms: _87  and  _88
REMARK   38  A    between atoms: _87  and  _90
REMARK   39  A    between atoms: _90  and  _91
REMARK   40  A    between atoms: _94  and  _96
REMARK   41  A    between atoms: _96  and  _97
REMARK   42  A    between atoms: _96  and  _99
REMARK   43  A    between atoms: _99  and  _100
REMARK   44  A    between atoms: _102  and  _104
REMARK   45  A    between atoms: _104  and  _105
REMARK   46  A    between atoms: _104  and  _107
REMARK   47  A    between atoms: _107  and  _108
REMARK   48  A    between atoms: _108  and  _109
REMARK   49  A    between atoms: _109  and  _110
REMARK   50  A    between atoms: _119  and  _121
REMARK   51  A    between atoms: _121  and  _122
REMARK   52  A    between atoms: _121  and  _124
REMARK   53  A    between atoms: _124  and  _125
REMARK   54  A    between atoms: _129  and  _130
REMARK   55  A    between atoms: _135  and  _137
REMARK   56  A    between atoms: _137  and  _138
REMARK   57  A    between atoms: _141  and  _143
REMARK   58  A    between atoms: _143  and  _144
REMARK   59  A    between atoms: _146  and  _148
REMARK   60  A    between atoms: _148  and  _149
REMARK   61  A    between atoms: _148  and  _151
REMARK   62  A    between atoms: _151  and  _152
REMARK   63  A    between atoms: _152  and  _153
REMARK   64  A    between atoms: _153  and  _154
REMARK   65  A    between atoms: _163  and  _165
REMARK   66  A    between atoms: _165  and  _166
REMARK   67  A    between atoms: _165  and  _168
REMARK   68  A    between atoms: _168  and  _169
REMARK   69  A    between atoms: _175  and  _177
REMARK   70  A    between atoms: _177  and  _178
REMARK   71  A    between atoms: _177  and  _180
REMARK   72  A    between atoms: _180  and  _181
REMARK   73  A    between atoms: _185  and  _186
REMARK   74  A    between atoms: _191  and  _193
REMARK   75  A    between atoms: _193  and  _194
REMARK   76  A    between atoms: _193  and  _196
REMARK   77  A    between atoms: _196  and  _197
REMARK   78  A    between atoms: _200  and  _202
REMARK   79  A    between atoms: _202  and  _203
REMARK   80  A    between atoms: _202  and  _205
REMARK   81  A    between atoms: _205  and  _206
REMARK   82  A    between atoms: _206  and  _207
REMARK   83  A    between atoms: _210  and  _212
REMARK   84  A    between atoms: _212  and  _213
REMARK   85  A    between atoms: _212  and  _215
REMARK   86  A    between atoms: _215  and  _216
REMARK   87  A    between atoms: _219  and  _221
REMARK   88  A    between atoms: _221  and  _222
REMARK   89  A    between atoms: _225  and  _227
REMARK   90  A    between atoms: _227  and  _228
REMARK   91  A    between atoms: _227  and  _230
REMARK   92  A    between atoms: _230  and  _231
REMARK   93  A    between atoms: _234  and  _236
REMARK   94  A    between atoms: _236  and  _237
REMARK   95  A    between atoms: _236  and  _239
REMARK   96  A    between atoms: _239  and  _240
REMARK   97  A    between atoms: _243  and  _245
REMARK   98  A    between atoms: _245  and  _246
REMARK   99  A    between atoms: _245  and  _248
REMARK  100  A    between atoms: _248  and  _249
REMARK  101  A    between atoms: _249  and  _250
REMARK  102  A    between atoms: _250  and  _251
REMARK  103  A    between atoms: _260  and  _262
REMARK  104  A    between atoms: _262  and  _263
REMARK  105  A    between atoms: _262  and  _265
REMARK  106  A    between atoms: _265  and  _266
REMARK  107  A    between atoms: _269  and  _271
REMARK  108  A    between atoms: _271  and  _272
REMARK  109  A    between atoms: _271  and  _274
REMARK  110  A    between atoms: _274  and  _275
REMARK  111  A    between atoms: _275  and  _276
REMARK  112  A    between atoms: _278  and  _280
REMARK  113  A    between atoms: _280  and  _281
REMARK  114  A    between atoms: _280  and  _283
REMARK  115  A    between atoms: _283  and  _284
REMARK  116  A    between atoms: _287  and  _289
REMARK  117  A    between atoms: _289  and  _290
REMARK  118  A    between atoms: _289  and  _292
REMARK  119  A    between atoms: _295  and  _297
REMARK  120  A    between atoms: _297  and  _298
REMARK  121  A    between atoms: _301  and  _303
REMARK  122  A    between atoms: _303  and  _304
REMARK  123  A    between atoms: _303  and  _306
REMARK  124  A    between atoms: _306  and  _307
REMARK  125  A    between atoms: _310  and  _312
REMARK  126  A    between atoms: _312  and  _313
REMARK  127  A    between atoms: _312  and  _315
REMARK  128  A    between atoms: _315  and  _316
REMARK  129  A    between atoms: _321  and  _323
REMARK  130  A    between atoms: _323  and  _324
REMARK  131  A    between atoms: _323  and  _326
REMARK  132  A    between atoms: _326  and  _327
REMARK  133  A    between atoms: _330  and  _332
REMARK  134  A    between atoms: _332  and  _333
REMARK  135  A    between atoms: _332  and  _335
REMARK  136  A    between atoms: _335  and  _336
REMARK  137  A    between atoms: _338  and  _340
REMARK  138  A    between atoms: _340  and  _341
REMARK  139  A    between atoms: _340  and  _343
REMARK  140  A    between atoms: _343  and  _344
REMARK  141  A    between atoms: _346  and  _348
REMARK  142  A    between atoms: _348  and  _349
REMARK  143  A    between atoms: _352  and  _354
REMARK  144  A    between atoms: _354  and  _355
REMARK  145  A    between atoms: _354  and  _357
REMARK  146  A    between atoms: _357  and  _358
REMARK  147  A    between atoms: _361  and  _363
REMARK  148  A    between atoms: _363  and  _364
REMARK  149  A    between atoms: _363  and  _366
REMARK  150  A    between atoms: _366  and  _367
REMARK  151  A    between atoms: _367  and  _368
REMARK  152  A    between atoms: _371  and  _373
REMARK  153  A    between atoms: _373  and  _374
REMARK  154  A    between atoms: _373  and  _376
REMARK  155  A    between atoms: _376  and  _377
REMARK  156  A    between atoms: _380  and  _382
REMARK  157  A    between atoms: _382  and  _383
REMARK  158  A    between atoms: _385  and  _387
REMARK  159  A    between atoms: _387  and  _388
REMARK  160  A    between atoms: _387  and  _390
REMARK  161  A    between atoms: _390  and  _391
REMARK  162  A    between atoms: _391  and  _392
REMARK  163  A    between atoms: _395  and  _397
REMARK  164  A    between atoms: _397  and  _398
REMARK  165  A    between atoms: _397  and  _400
REMARK  166  A    between atoms: _400  and  _401
REMARK  167  A    between atoms: _401  and  _402
REMARK  168  A    between atoms: _405  and  _407
REMARK  169  A    between atoms: _407  and  _408
REMARK  170  A    between atoms: _407  and  _410
REMARK  171  A    between atoms: _410  and  _411
REMARK  172  A    between atoms: _411  and  _412
REMARK  173  A    between atoms: _417  and  _419
REMARK  174  A    between atoms: _419  and  _420
REMARK  175  A    between atoms: _419  and  _422
REMARK  176  A    between atoms: _422  and  _423
REMARK  177  A    between atoms: _423  and  _424
REMARK  178  A    between atoms: _429  and  _431
REMARK  179  A    between atoms: _431  and  _432
REMARK  180  A    between atoms: _431  and  _434
REMARK  181  A    between atoms: _434  and  _435
REMARK  182  A    between atoms: _435  and  _436
REMARK  183  A    between atoms: _436  and  _437
REMARK  184  A    between atoms: _446  and  _448
REMARK  185  A    between atoms: _448  and  _449
REMARK  186  A    between atoms: _448  and  _451
REMARK  187  A    between atoms: _451  and  _452
REMARK  188  A    between atoms: _457  and  _458
REMARK  189  A    between atoms: _460  and  _462
REMARK  190  A    between atoms: _462  and  _463
REMARK  191  A    between atoms: _462  and  _465
REMARK  192  A    between atoms: _465  and  _466
REMARK  193  A    between atoms: _466  and  _467
REMARK  194  A    between atoms: _467  and  _468
REMARK  195  A    between atoms: _468  and  _469
REMARK  196  A    between atoms: _473  and  _475
REMARK  197  A    between atoms: _475  and  _476
REMARK  198  A    between atoms: _475  and  _478
REMARK  199  A    between atoms: _478  and  _479
REMARK  200  A    between atoms: _482  and  _484
REMARK  201  A    between atoms: _484  and  _485
REMARK  202  A    between atoms: _487  and  _489
REMARK  203  A    between atoms: _489  and  _490
REMARK  204  A    between atoms: _489  and  _492
REMARK  205  A    between atoms: _492  and  _493
REMARK  206  A    between atoms: _496  and  _498
REMARK  207  A    between atoms: _498  and  _499
REMARK  208  A    between atoms: _498  and  _501
REMARK  209  A    between atoms: _501  and  _502
REMARK  210  A    between atoms: _502  and  _503
REMARK  211  A    between atoms: _503  and  _504
REMARK  212  A    between atoms: _513  and  _515
REMARK  213  A    between atoms: _515  and  _516
REMARK  214  A    between atoms: _515  and  _518
REMARK  215  A    between atoms: _518  and  _519
REMARK  216  A    between atoms: _519  and  _520
REMARK  217  A    between atoms: _523  and  _525
REMARK  218  A    between atoms: _525  and  _526
REMARK  219  A    between atoms: _525  and  _528
REMARK  220  A    between atoms: _528  and  _529
REMARK  221  A    between atoms: _529  and  _530
REMARK  222  A    between atoms: _530  and  _531
REMARK  223  A    between atoms: _540  and  _542
REMARK  224  A    between atoms: _542  and  _543
REMARK  225  A    between atoms: _542  and  _545
REMARK  226  A    between atoms: _548  and  _550
REMARK  227  A    between atoms: _550  and  _551
REMARK  228  A    between atoms: _550  and  _553
REMARK  229  A    between atoms: _553  and  _554
REMARK  230  A    between atoms: _554  and  _555
REMARK  231  A    between atoms: _558  and  _560
REMARK  232  A    between atoms: _560  and  _561
REMARK  233  A    between atoms: _560  and  _563
REMARK  234  A    between atoms: _563  and  _564
REMARK  235  A    between atoms: _567  and  _569
REMARK  236  A    between atoms: _569  and  _570
REMARK  237  A    between atoms: _569  and  _572
REMARK  238  A    between atoms: _572  and  _573
REMARK  239  A    between atoms: _573  and  _574
REMARK  240  A    between atoms: _577  and  _579
REMARK  241  A    between atoms: _579  and  _580
REMARK  242  A    between atoms: _579  and  _582
REMARK  243  A    between atoms: _582  and  _583
REMARK  244  A    between atoms: _583  and  _584
REMARK  245  A    between atoms: _589  and  _591
REMARK  246  A    between atoms: _591  and  _592
REMARK  247  A    between atoms: _594  and  _596
REMARK  248  A    between atoms: _596  and  _597
REMARK  249  A    between atoms: _596  and  _599
REMARK  250  A    between atoms: _599  and  _600
REMARK  251  A    between atoms: _600  and  _601
REMARK  252  A    between atoms: _606  and  _608
REMARK  253  A    between atoms: _608  and  _609
REMARK  254  A    between atoms: _608  and  _611
REMARK  255  A    between atoms: _611  and  _612
REMARK  256  A    between atoms: _615  and  _617
REMARK  257  A    between atoms: _617  and  _618
REMARK  258  A    between atoms: _617  and  _620
REMARK  259  A    between atoms: _620  and  _621
REMARK  260  A    between atoms: _627  and  _629
REMARK  261  A    between atoms: _629  and  _630
REMARK  262  A    between atoms: _632  and  _634
REMARK  263  A    between atoms: _634  and  _635
REMARK  264  A    between atoms: _634  and  _637
REMARK  265  A    between atoms: _637  and  _638
REMARK  266  A    between atoms: _638  and  _639
REMARK  267  A    between atoms: _643  and  _644
REMARK                            x       y       z     vdW  Elec       q    Type
REMARK                         _______ _______ _______ _____ _____    ______ ____
ROOT
ATOM      1  O   HOH     1      20.194  35.637   4.532  0.00  0.00    +0.000 OA
ENDROOT
TORSDOF 0
REMARK  Name = ../refined-set-2016/3pju/3pju_pocket.pdb
REMARK  267 active torsions:
REMARK  status: ('A' for Active; 'I' for Inactive)
REMARK    1  A    between atoms: _1  and  _3
REMARK    2  A    between atoms: _3  and  _4
REMARK    3  A    between atoms: _3  and  _6
REMARK    4  A    between atoms: _6  and  _7
REMARK    5  A    between atoms: _13  and  _15
REMARK    6  A    between atoms: _15  and  _16
REMARK    7  A    between atoms: _15  and  _18
REMARK    8  A    between atoms: _18  and  _19
REMARK    9  A    between atoms: _19  and  _20
REMARK   10  A    between atoms: _23  and  _25
REMARK   11  A    between atoms: _25  and  _26
REMARK   12  A    between atoms: _25  and  _28
REMARK   13  A    between atoms: _28  and  _29
REMARK   14  A    between atoms: _32  and  _34
REMARK   15  A    between atoms: _34  and  _35
REMARK   16  A    between atoms: _34  and  _37
REMARK   17  A    between atoms: _37  and  _38
REMARK   18  A    between atoms: _44  and  _46
REMARK   19  A    between atoms: _46  and  _47
REMARK   20  A    between atoms: _46  and  _49
REMARK   21  A    between atoms: _49  and  _50
REMARK   22  A    between atoms: _50  and  _51
REMARK   23  A    between atoms: _56  and  _58
REMARK   24  A    between atoms: _58  and  _59
REMARK   25  A    between atoms: _58  and  _61
REMARK   26  A    between atoms: _64  and  _66
REMARK   27  A    between atoms: _66  and  _67
REMARK   28  A    between atoms: _66  and  _69
REMARK   29  A    between atoms: _69  and  _70
REMARK   30  A    between atoms: _70  and  _71
REMARK   31  A    between atoms: _71  and  _72
REMARK   32  A    between atoms: _72  and  _73
REMARK   33  A    between atoms: _77  and  _79
REMARK   34  A    between atoms: _79  and  _80
REMARK   35  A    between atoms: _79  and  _82
REMARK   36  A    between atoms: _85  and  _87
REMARK   37  A    between atoms: _87  and  _88
REMARK   38  A    between atoms: _87  and  _90
REMARK   39  A    between atoms: _90  and  _91
REMARK   40  A    between atoms: _94  and  _96
REMARK   41  A    between atoms: _96  and  _97
REMARK   42  A    between atoms: _96  and  _99
REMARK   43  A    between atoms: _99  and  _100
REMARK   44  A    between atoms: _102  and  _104
REMARK   45  A    between atoms: _104  and  _105
REMARK   46  A    between atoms: _104  and  _107
REMARK   47  A    between atoms: _107  and  _108
REMARK   48  A    between atoms: _108  and  _109
REMARK   49  A    between atoms: _109  and  _110
REMARK   50  A    between atoms: _119  and  _121
REMARK   51  A    between atoms: _121  and  _122
REMARK   52  A    between atoms: _121  and  _124
REMARK   53  A    between atoms: _124  and  _125
REMARK   54  A    between atoms: _129  and  _130
REMARK   55  A    between atoms: _135  and  _137
REMARK   56  A    between atoms: _137  and  _138
REMARK   57  A    between atoms: _141  and  _143
REMARK   58  A    between atoms: _143  and  _144
REMARK   59  A    between atoms: _146  and  _148
REMARK   60  A    between atoms: _148  and  _149
REMARK   61  A    between atoms: _148  and  _151
REMARK   62  A    between atoms: _151  and  _152
REMARK   63  A    between atoms: _152  and  _153
REMARK   64  A    between atoms: _153  and  _154
REMARK   65  A    between atoms: _163  and  _165
REMARK   66  A    between atoms: _165  and  _166
REMARK   67  A    between atoms: _165  and  _168
REMARK   68  A    between atoms: _168  and  _169
REMARK   69  A    between atoms: _175  and  _177
REMARK   70  A    between atoms: _177  and  _178
REMARK   71  A    between atoms: _177  and  _180
REMARK   72  A    between atoms: _180  and  _181
REMARK   73  A    between atoms: _185  and  _186
REMARK   74  A    between atoms: _191  and  _193
REMARK   75  A    between atoms: _193  and  _194
REMARK   76  A    between atoms: _193  and  _196
REMARK   77  A    between atoms: _196  and  _197
REMARK   78  A    between atoms: _200  and  _202
REMARK   79  A    between atoms: _202  and  _203
REMARK   80  A    between atoms: _202  and  _205
REMARK   81  A    between atoms: _205  and  _206
REMARK   82  A    between atoms: _206  and  _207
REMARK   83  A    between atoms: _210  and  _212
REMARK   84  A    between atoms: _212  and  _213
REMARK   85  A    between atoms: _212  and  _215
REMARK   86  A    between atoms: _215  and  _216
REMARK   87  A    between atoms: _219  and  _221
REMARK   88  A    between atoms: _221  and  _222
REMARK   89  A    between atoms: _225  and  _227
REMARK   90  A    between atoms: _227  and  _228
REMARK   91  A    between atoms: _227  and  _230
REMARK   92  A    between atoms: _230  and  _231
REMARK   93  A    between atoms: _234  and  _236
REMARK   94  A    between atoms: _236  and  _237
REMARK   95  A    between atoms: _236  and  _239
REMARK   96  A    between atoms: _239  and  _240
REMARK   97  A    between atoms: _243  and  _245
REMARK   98  A    between atoms: _245  and  _246
REMARK   99  A    between atoms: _245  and  _248
REMARK  100  A    between atoms: _248  and  _249
REMARK  101  A    between atoms: _249  and  _250
REMARK  102  A    between atoms: _250  and  _251
REMARK  103  A    between atoms: _260  and  _262
REMARK  104  A    between atoms: _262  and  _263
REMARK  105  A    between atoms: _262  and  _265
REMARK  106  A    between atoms: _265  and  _266
REMARK  107  A    between atoms: _269  and  _271
REMARK  108  A    between atoms: _271  and  _272
REMARK  109  A    between atoms: _271  and  _274
REMARK  110  A    between atoms: _274  and  _275
REMARK  111  A    between atoms: _275  and  _276
REMARK  112  A    between atoms: _278  and  _280
REMARK  113  A    between atoms: _280  and  _281
REMARK  114  A    between atoms: _280  and  _283
REMARK  115  A    between atoms: _283  and  _284
REMARK  116  A    between atoms: _287  and  _289
REMARK  117  A    between atoms: _289  and  _290
REMARK  118  A    between atoms: _289  and  _292
REMARK  119  A    between atoms: _295  and  _297
REMARK  120  A    between atoms: _297  and  _298
REMARK  121  A    between atoms: _301  and  _303
REMARK  122  A    between atoms: _303  and  _304
REMARK  123  A    between atoms: _303  and  _306
REMARK  124  A    between atoms: _306  and  _307
REMARK  125  A    between atoms: _310  and  _312
REMARK  126  A    between atoms: _312  and  _313
REMARK  127  A    between atoms: _312  and  _315
REMARK  128  A    between atoms: _315  and  _316
REMARK  129  A    between atoms: _321  and  _323
REMARK  130  A    between atoms: _323  and  _324
REMARK  131  A    between atoms: _323  and  _326
REMARK  132  A    between atoms: _326  and  _327
REMARK  133  A    between atoms: _330  and  _332
REMARK  134  A    between atoms: _332  and  _333
REMARK  135  A    between atoms: _332  and  _335
REMARK  136  A    between atoms: _335  and  _336
REMARK  137  A    between atoms: _338  and  _340
REMARK  138  A    between atoms: _340  and  _341
REMARK  139  A    between atoms: _340  and  _343
REMARK  140  A    between atoms: _343  and  _344
REMARK  141  A    between atoms: _346  and  _348
REMARK  142  A    between atoms: _348  and  _349
REMARK  143  A    between atoms: _352  and  _354
REMARK  144  A    between atoms: _354  and  _355
REMARK  145  A    between atoms: _354  and  _357
REMARK  146  A    between atoms: _357  and  _358
REMARK  147  A    between atoms: _361  and  _363
REMARK  148  A    between atoms: _363  and  _364
REMARK  149  A    between atoms: _363  and  _366
REMARK  150  A    between atoms: _366  and  _367
REMARK  151  A    between atoms: _367  and  _368
REMARK  152  A    between atoms: _371  and  _373
REMARK  153  A    between atoms: _373  and  _374
REMARK  154  A    between atoms: _373  and  _376
REMARK  155  A    between atoms: _376  and  _377
REMARK  156  A    between atoms: _380  and  _382
REMARK  157  A    between atoms: _382  and  _383
REMARK  158  A    between atoms: _385  and  _387
REMARK  159  A    between atoms: _387  and  _388
REMARK  160  A    between atoms: _387  and  _390
REMARK  161  A    between atoms: _390  and  _391
REMARK  162  A    between atoms: _391  and  _392
REMARK  163  A    between atoms: _395  and  _397
REMARK  164  A    between atoms: _397  and  _398
REMARK  165  A    between atoms: _397  and  _400
REMARK  166  A    between atoms: _400  and  _401
REMARK  167  A    between atoms: _401  and  _402
REMARK  168  A    between atoms: _405  and  _407
REMARK  169  A    between atoms: _407  and  _408
REMARK  170  A    between atoms: _407  and  _410
REMARK  171  A    between atoms: _410  and  _411
REMARK  172  A    between atoms: _411  and  _412
REMARK  173  A    between atoms: _417  and  _419
REMARK  174  A    between atoms: _419  and  _420
REMARK  175  A    between atoms: _419  and  _422
REMARK  176  A    between atoms: _422  and  _423
REMARK  177  A    between atoms: _423  and  _424
REMARK  178  A    between atoms: _429  and  _431
REMARK  179  A    between atoms: _431  and  _432
REMARK  180  A    between atoms: _431  and  _434
REMARK  181  A    between atoms: _434  and  _435
REMARK  182  A    between atoms: _435  and  _436
REMARK  183  A    between atoms: _436  and  _437
REMARK  184  A    between atoms: _446  and  _448
REMARK  185  A    between atoms: _448  and  _449
REMARK  186  A    between atoms: _448  and  _451
REMARK  187  A    between atoms: _451  and  _452
REMARK  188  A    between atoms: _457  and  _458
REMARK  189  A    between atoms: _460  and  _462
REMARK  190  A    between atoms: _462  and  _463
REMARK  191  A    between atoms: _462  and  _465
REMARK  192  A    between atoms: _465  and  _466
REMARK  193  A    between atoms: _466  and  _467
REMARK  194  A    between atoms: _467  and  _468
REMARK  195  A    between atoms: _468  and  _469
REMARK  196  A    between atoms: _473  and  _475
REMARK  197  A    between atoms: _475  and  _476
REMARK  198  A    between atoms: _475  and  _478
REMARK  199  A    between atoms: _478  and  _479
REMARK  200  A    between atoms: _482  and  _484
REMARK  201  A    between atoms: _484  and  _485
REMARK  202  A    between atoms: _487  and  _489
REMARK  203  A    between atoms: _489  and  _490
REMARK  204  A    between atoms: _489  and  _492
REMARK  205  A    between atoms: _492  and  _493
REMARK  206  A    between atoms: _496  and  _498
REMARK  207  A    between atoms: _498  and  _499
REMARK  208  A    between atoms: _498  and  _501
REMARK  209  A    between atoms: _501  and  _502
REMARK  210  A    between atoms: _502  and  _503
REMARK  211  A    between atoms: _503  and  _504
REMARK  212  A    between atoms: _513  and  _515
REMARK  213  A    between atoms: _515  and  _516
REMARK  214  A    between atoms: _515  and  _518
REMARK  215  A    between atoms: _518  and  _519
REMARK  216  A    between atoms: _519  and  _520
REMARK  217  A    between atoms: _523  and  _525
REMARK  218  A    between atoms: _525  and  _526
REMARK  219  A    between atoms: _525  and  _528
REMARK  220  A    between atoms: _528  and  _529
REMARK  221  A    between atoms: _529  and  _530
REMARK  222  A    between atoms: _530  and  _531
REMARK  223  A    between atoms: _540  and  _542
REMARK  224  A    between atoms: _542  and  _543
REMARK  225  A    between atoms: _542  and  _545
REMARK  226  A    between atoms: _548  and  _550
REMARK  227  A    between atoms: _550  and  _551
REMARK  228  A    between atoms: _550  and  _553
REMARK  229  A    between atoms: _553  and  _554
REMARK  230  A    between atoms: _554  and  _555
REMARK  231  A    between atoms: _558  and  _560
REMARK  232  A    between atoms: _560  and  _561
REMARK  233  A    between atoms: _560  and  _563
REMARK  234  A    between atoms: _563  and  _564
REMARK  235  A    between atoms: _567  and  _569
REMARK  236  A    between atoms: _569  and  _570
REMARK  237  A    between atoms: _569  and  _572
REMARK  238  A    between atoms: _572  and  _573
REMARK  239  A    between atoms: _573  and  _574
REMARK  240  A    between atoms: _577  and  _579
REMARK  241  A    between atoms: _579  and  _580
REMARK  242  A    between atoms: _579  and  _582
REMARK  243  A    between atoms: _582  and  _583
REMARK  244  A    between atoms: _583  and  _584
REMARK  245  A    between atoms: _589  and  _591
REMARK  246  A    between atoms: _591  and  _592
REMARK  247  A    between atoms: _594  and  _596
REMARK  248  A    between atoms: _596  and  _597
REMARK  249  A    between atoms: _596  and  _599
REMARK  250  A    between atoms: _599  and  _600
REMARK  251  A    between atoms: _600  and  _601
REMARK  252  A    between atoms: _606  and  _608
REMARK  253  A    between atoms: _608  and  _609
REMARK  254  A    between atoms: _608  and  _611
REMARK  255  A    between atoms: _611  and  _612
REMARK  256  A    between atoms: _615  and  _617
REMARK  257  A    between atoms: _617  and  _618
REMARK  258  A    between atoms: _617  and  _620
REMARK  259  A    between atoms: _620  and  _621
REMARK  260  A    between atoms: _627  and  _629
REMARK  261  A    between atoms: _629  and  _630
REMARK  262  A    between atoms: _632  and  _634
REMARK  263  A    between atoms: _634  and  _635
REMARK  264  A    between atoms: _634  and  _637
REMARK  265  A    between atoms: _637  and  _638
REMARK  266  A    between atoms: _638  and  _639
REMARK  267  A    between atoms: _643  and  _644
REMARK                            x       y       z     vdW  Elec       q    Type
REMARK                         _______ _______ _______ _____ _____    ______ ____
ROOT
ATOM      1  O   HOH     1      18.755  41.119  -2.757  0.00  0.00    +0.000 OA
ENDROOT
TORSDOF 0
REMARK  Name = ../refined-set-2016/3pju/3pju_pocket.pdb
REMARK  267 active torsions:
REMARK  status: ('A' for Active; 'I' for Inactive)
REMARK    1  A    between atoms: _1  and  _3
REMARK    2  A    between atoms: _3  and  _4
REMARK    3  A    between atoms: _3  and  _6
REMARK    4  A    between atoms: _6  and  _7
REMARK    5  A    between atoms: _13  and  _15
REMARK    6  A    between atoms: _15  and  _16
REMARK    7  A    between atoms: _15  and  _18
REMARK    8  A    between atoms: _18  and  _19
REMARK    9  A    between atoms: _19  and  _20
REMARK   10  A    between atoms: _23  and  _25
REMARK   11  A    between atoms: _25  and  _26
REMARK   12  A    between atoms: _25  and  _28
REMARK   13  A    between atoms: _28  and  _29
REMARK   14  A    between atoms: _32  and  _34
REMARK   15  A    between atoms: _34  and  _35
REMARK   16  A    between atoms: _34  and  _37
REMARK   17  A    between atoms: _37  and  _38
REMARK   18  A    between atoms: _44  and  _46
REMARK   19  A    between atoms: _46  and  _47
REMARK   20  A    between atoms: _46  and  _49
REMARK   21  A    between atoms: _49  and  _50
REMARK   22  A    between atoms: _50  and  _51
REMARK   23  A    between atoms: _56  and  _58
REMARK   24  A    between atoms: _58  and  _59
REMARK   25  A    between atoms: _58  and  _61
REMARK   26  A    between atoms: _64  and  _66
REMARK   27  A    between atoms: _66  and  _67
REMARK   28  A    between atoms: _66  and  _69
REMARK   29  A    between atoms: _69  and  _70
REMARK   30  A    between atoms: _70  and  _71
REMARK   31  A    between atoms: _71  and  _72
REMARK   32  A    between atoms: _72  and  _73
REMARK   33  A    between atoms: _77  and  _79
REMARK   34  A    between atoms: _79  and  _80
REMARK   35  A    between atoms: _79  and  _82
REMARK   36  A    between atoms: _85  and  _87
REMARK   37  A    between atoms: _87  and  _88
REMARK   38  A    between atoms: _87  and  _90
REMARK   39  A    between atoms: _90  and  _91
REMARK   40  A    between atoms: _94  and  _96
REMARK   41  A    between atoms: _96  and  _97
REMARK   42  A    between atoms: _96  and  _99
REMARK   43  A    between atoms: _99  and  _100
REMARK   44  A    between atoms: _102  and  _104
REMARK   45  A    between atoms: _104  and  _105
REMARK   46  A    between atoms: _104  and  _107
REMARK   47  A    between atoms: _107  and  _108
REMARK   48  A    between atoms: _108  and  _109
REMARK   49  A    between atoms: _109  and  _110
REMARK   50  A    between atoms: _119  and  _121
REMARK   51  A    between atoms: _121  and  _122
REMARK   52  A    between atoms: _121  and  _124
REMARK   53  A    between atoms: _124  and  _125
REMARK   54  A    between atoms: _129  and  _130
REMARK   55  A    between atoms: _135  and  _137
REMARK   56  A    between atoms: _137  and  _138
REMARK   57  A    between atoms: _141  and  _143
REMARK   58  A    between atoms: _143  and  _144
REMARK   59  A    between atoms: _146  and  _148
REMARK   60  A    between atoms: _148  and  _149
REMARK   61  A    between atoms: _148  and  _151
REMARK   62  A    between atoms: _151  and  _152
REMARK   63  A    between atoms: _152  and  _153
REMARK   64  A    between atoms: _153  and  _154
REMARK   65  A    between atoms: _163  and  _165
REMARK   66  A    between atoms: _165  and  _166
REMARK   67  A    between atoms: _165  and  _168
REMARK   68  A    between atoms: _168  and  _169
REMARK   69  A    between atoms: _175  and  _177
REMARK   70  A    between atoms: _177  and  _178
REMARK   71  A    between atoms: _177  and  _180
REMARK   72  A    between atoms: _180  and  _181
REMARK   73  A    between atoms: _185  and  _186
REMARK   74  A    between atoms: _191  and  _193
REMARK   75  A    between atoms: _193  and  _194
REMARK   76  A    between atoms: _193  and  _196
REMARK   77  A    between atoms: _196  and  _197
REMARK   78  A    between atoms: _200  and  _202
REMARK   79  A    between atoms: _202  and  _203
REMARK   80  A    between atoms: _202  and  _205
REMARK   81  A    between atoms: _205  and  _206
REMARK   82  A    between atoms: _206  and  _207
REMARK   83  A    between atoms: _210  and  _212
REMARK   84  A    between atoms: _212  and  _213
REMARK   85  A    between atoms: _212  and  _215
REMARK   86  A    between atoms: _215  and  _216
REMARK   87  A    between atoms: _219  and  _221
REMARK   88  A    between atoms: _221  and  _222
REMARK   89  A    between atoms: _225  and  _227
REMARK   90  A    between atoms: _227  and  _228
REMARK   91  A    between atoms: _227  and  _230
REMARK   92  A    between atoms: _230  and  _231
REMARK   93  A    between atoms: _234  and  _236
REMARK   94  A    between atoms: _236  and  _237
REMARK   95  A    between atoms: _236  and  _239
REMARK   96  A    between atoms: _239  and  _240
REMARK   97  A    between atoms: _243  and  _245
REMARK   98  A    between atoms: _245  and  _246
REMARK   99  A    between atoms: _245  and  _248
REMARK  100  A    between atoms: _248  and  _249
REMARK  101  A    between atoms: _249  and  _250
REMARK  102  A    between atoms: _250  and  _251
REMARK  103  A    between atoms: _260  and  _262
REMARK  104  A    between atoms: _262  and  _263
REMARK  105  A    between atoms: _262  and  _265
REMARK  106  A    between atoms: _265  and  _266
REMARK  107  A    between atoms: _269  and  _271
REMARK  108  A    between atoms: _271  and  _272
REMARK  109  A    between atoms: _271  and  _274
REMARK  110  A    between atoms: _274  and  _275
REMARK  111  A    between atoms: _275  and  _276
REMARK  112  A    between atoms: _278  and  _280
REMARK  113  A    between atoms: _280  and  _281
REMARK  114  A    between atoms: _280  and  _283
REMARK  115  A    between atoms: _283  and  _284
REMARK  116  A    between atoms: _287  and  _289
REMARK  117  A    between atoms: _289  and  _290
REMARK  118  A    between atoms: _289  and  _292
REMARK  119  A    between atoms: _295  and  _297
REMARK  120  A    between atoms: _297  and  _298
REMARK  121  A    between atoms: _301  and  _303
REMARK  122  A    between atoms: _303  and  _304
REMARK  123  A    between atoms: _303  and  _306
REMARK  124  A    between atoms: _306  and  _307
REMARK  125  A    between atoms: _310  and  _312
REMARK  126  A    between atoms: _312  and  _313
REMARK  127  A    between atoms: _312  and  _315
REMARK  128  A    between atoms: _315  and  _316
REMARK  129  A    between atoms: _321  and  _323
REMARK  130  A    between atoms: _323  and  _324
REMARK  131  A    between atoms: _323  and  _326
REMARK  132  A    between atoms: _326  and  _327
REMARK  133  A    between atoms: _330  and  _332
REMARK  134  A    between atoms: _332  and  _333
REMARK  135  A    between atoms: _332  and  _335
REMARK  136  A    between atoms: _335  and  _336
REMARK  137  A    between atoms: _338  and  _340
REMARK  138  A    between atoms: _340  and  _341
REMARK  139  A    between atoms: _340  and  _343
REMARK  140  A    between atoms: _343  and  _344
REMARK  141  A    between atoms: _346  and  _348
REMARK  142  A    between atoms: _348  and  _349
REMARK  143  A    between atoms: _352  and  _354
REMARK  144  A    between atoms: _354  and  _355
REMARK  145  A    between atoms: _354  and  _357
REMARK  146  A    between atoms: _357  and  _358
REMARK  147  A    between atoms: _361  and  _363
REMARK  148  A    between atoms: _363  and  _364
REMARK  149  A    between atoms: _363  and  _366
REMARK  150  A    between atoms: _366  and  _367
REMARK  151  A    between atoms: _367  and  _368
REMARK  152  A    between atoms: _371  and  _373
REMARK  153  A    between atoms: _373  and  _374
REMARK  154  A    between atoms: _373  and  _376
REMARK  155  A    between atoms: _376  and  _377
REMARK  156  A    between atoms: _380  and  _382
REMARK  157  A    between atoms: _382  and  _383
REMARK  158  A    between atoms: _385  and  _387
REMARK  159  A    between atoms: _387  and  _388
REMARK  160  A    between atoms: _387  and  _390
REMARK  161  A    between atoms: _390  and  _391
REMARK  162  A    between atoms: _391  and  _392
REMARK  163  A    between atoms: _395  and  _397
REMARK  164  A    between atoms: _397  and  _398
REMARK  165  A    between atoms: _397  and  _400
REMARK  166  A    between atoms: _400  and  _401
REMARK  167  A    between atoms: _401  and  _402
REMARK  168  A    between atoms: _405  and  _407
REMARK  169  A    between atoms: _407  and  _408
REMARK  170  A    between atoms: _407  and  _410
REMARK  171  A    between atoms: _410  and  _411
REMARK  172  A    between atoms: _411  and  _412
REMARK  173  A    between atoms: _417  and  _419
REMARK  174  A    between atoms: _419  and  _420
REMARK  175  A    between atoms: _419  and  _422
REMARK  176  A    between atoms: _422  and  _423
REMARK  177  A    between atoms: _423  and  _424
REMARK  178  A    between atoms: _429  and  _431
REMARK  179  A    between atoms: _431  and  _432
REMARK  180  A    between atoms: _431  and  _434
REMARK  181  A    between atoms: _434  and  _435
REMARK  182  A    between atoms: _435  and  _436
REMARK  183  A    between atoms: _436  and  _437
REMARK  184  A    between atoms: _446  and  _448
REMARK  185  A    between atoms: _448  and  _449
REMARK  186  A    between atoms: _448  and  _451
REMARK  187  A    between atoms: _451  and  _452
REMARK  188  A    between atoms: _457  and  _458
REMARK  189  A    between atoms: _460  and  _462
REMARK  190  A    between atoms: _462  and  _463
REMARK  191  A    between atoms: _462  and  _465
REMARK  192  A    between atoms: _465  and  _466
REMARK  193  A    between atoms: _466  and  _467
REMARK  194  A    between atoms: _467  and  _468
REMARK  195  A    between atoms: _468  and  _469
REMARK  196  A    between atoms: _473  and  _475
REMARK  197  A    between atoms: _475  and  _476
REMARK  198  A    between atoms: _475  and  _478
REMARK  199  A    between atoms: _478  and  _479
REMARK  200  A    between atoms: _482  and  _484
REMARK  201  A    between atoms: _484  and  _485
REMARK  202  A    between atoms: _487  and  _489
REMARK  203  A    between atoms: _489  and  _490
REMARK  204  A    between atoms: _489  and  _492
REMARK  205  A    between atoms: _492  and  _493
REMARK  206  A    between atoms: _496  and  _498
REMARK  207  A    between atoms: _498  and  _499
REMARK  208  A    between atoms: _498  and  _501
REMARK  209  A    between atoms: _501  and  _502
REMARK  210  A    between atoms: _502  and  _503
REMARK  211  A    between atoms: _503  and  _504
REMARK  212  A    between atoms: _513  and  _515
REMARK  213  A    between atoms: _515  and  _516
REMARK  214  A    between atoms: _515  and  _518
REMARK  215  A    between atoms: _518  and  _519
REMARK  216  A    between atoms: _519  and  _520
REMARK  217  A    between atoms: _523  and  _525
REMARK  218  A    between atoms: _525  and  _526
REMARK  219  A    between atoms: _525  and  _528
REMARK  220  A    between atoms: _528  and  _529
REMARK  221  A    between atoms: _529  and  _530
REMARK  222  A    between atoms: _530  and  _531
REMARK  223  A    between atoms: _540  and  _542
REMARK  224  A    between atoms: _542  and  _543
REMARK  225  A    between atoms: _542  and  _545
REMARK  226  A    between atoms: _548  and  _550
REMARK  227  A    between atoms: _550  and  _551
REMARK  228  A    between atoms: _550  and  _553
REMARK  229  A    between atoms: _553  and  _554
REMARK  230  A    between atoms: _554  and  _555
REMARK  231  A    between atoms: _558  and  _560
REMARK  232  A    between atoms: _560  and  _561
REMARK  233  A    between atoms: _560  and  _563
REMARK  234  A    between atoms: _563  and  _564
REMARK  235  A    between atoms: _567  and  _569
REMARK  236  A    between atoms: _569  and  _570
REMARK  237  A    between atoms: _569  and  _572
REMARK  238  A    between atoms: _572  and  _573
REMARK  239  A    between atoms: _573  and  _574
REMARK  240  A    between atoms: _577  and  _579
REMARK  241  A    between atoms: _579  and  _580
REMARK  242  A    between atoms: _579  and  _582
REMARK  243  A    between atoms: _582  and  _583
REMARK  244  A    between atoms: _583  and  _584
REMARK  245  A    between atoms: _589  and  _591
REMARK  246  A    between atoms: _591  and  _592
REMARK  247  A    between atoms: _594  and  _596
REMARK  248  A    between atoms: _596  and  _597
REMARK  249  A    between atoms: _596  and  _599
REMARK  250  A    between atoms: _599  and  _600
REMARK  251  A    between atoms: _600  and  _601
REMARK  252  A    between atoms: _606  and  _608
REMARK  253  A    between atoms: _608  and  _609
REMARK  254  A    between atoms: _608  and  _611
REMARK  255  A    between atoms: _611  and  _612
REMARK  256  A    between atoms: _615  and  _617
REMARK  257  A    between atoms: _617  and  _618
REMARK  258  A    between atoms: _617  and  _620
REMARK  259  A    between atoms: _620  and  _621
REMARK  260  A    between atoms: _627  and  _629
REMARK  261  A    between atoms: _629  and  _630
REMARK  262  A    between atoms: _632  and  _634
REMARK  263  A    between atoms: _634  and  _635
REMARK  264  A    between atoms: _634  and  _637
REMARK  265  A    between atoms: _637  and  _638
REMARK  266  A    between atoms: _638  and  _639
REMARK  267  A    between atoms: _643  and  _644
REMARK                            x       y       z     vdW  Elec       q    Type
REMARK                         _______ _______ _______ _____ _____    ______ ____
ROOT
ATOM      1  O   HOH     1      25.062  42.027  -4.250  0.00  0.00    +0.000 OA
ENDROOT
TORSDOF 0
REMARK  Name = ../refined-set-2016/3pju/3pju_pocket.pdb
REMARK  267 active torsions:
REMARK  status: ('A' for Active; 'I' for Inactive)
REMARK    1  A    between atoms: _1  and  _3
REMARK    2  A    between atoms: _3  and  _4
REMARK    3  A    between atoms: _3  and  _6
REMARK    4  A    between atoms: _6  and  _7
REMARK    5  A    between atoms: _13  and  _15
REMARK    6  A    between atoms: _15  and  _16
REMARK    7  A    between atoms: _15  and  _18
REMARK    8  A    between atoms: _18  and  _19
REMARK    9  A    between atoms: _19  and  _20
REMARK   10  A    between atoms: _23  and  _25
REMARK   11  A    between atoms: _25  and  _26
REMARK   12  A    between atoms: _25  and  _28
REMARK   13  A    between atoms: _28  and  _29
REMARK   14  A    between atoms: _32  and  _34
REMARK   15  A    between atoms: _34  and  _35
REMARK   16  A    between atoms: _34  and  _37
REMARK   17  A    between atoms: _37  and  _38
REMARK   18  A    between atoms: _44  and  _46
REMARK   19  A    between atoms: _46  and  _47
REMARK   20  A    between atoms: _46  and  _49
REMARK   21  A    between atoms: _49  and  _50
REMARK   22  A    between atoms: _50  and  _51
REMARK   23  A    between atoms: _56  and  _58
REMARK   24  A    between atoms: _58  and  _59
REMARK   25  A    between atoms: _58  and  _61
REMARK   26  A    between atoms: _64  and  _66
REMARK   27  A    between atoms: _66  and  _67
REMARK   28  A    between atoms: _66  and  _69
REMARK   29  A    between atoms: _69  and  _70
REMARK   30  A    between atoms: _70  and  _71
REMARK   31  A    between atoms: _71  and  _72
REMARK   32  A    between atoms: _72  and  _73
REMARK   33  A    between atoms: _77  and  _79
REMARK   34  A    between atoms: _79  and  _80
REMARK   35  A    between atoms: _79  and  _82
REMARK   36  A    between atoms: _85  and  _87
REMARK   37  A    between atoms: _87  and  _88
REMARK   38  A    between atoms: _87  and  _90
REMARK   39  A    between atoms: _90  and  _91
REMARK   40  A    between atoms: _94  and  _96
REMARK   41  A    between atoms: _96  and  _97
REMARK   42  A    between atoms: _96  and  _99
REMARK   43  A    between atoms: _99  and  _100
REMARK   44  A    between atoms: _102  and  _104
REMARK   45  A    between atoms: _104  and  _105
REMARK   46  A    between atoms: _104  and  _107
REMARK   47  A    between atoms: _107  and  _108
REMARK   48  A    between atoms: _108  and  _109
REMARK   49  A    between atoms: _109  and  _110
REMARK   50  A    between atoms: _119  and  _121
REMARK   51  A    between atoms: _121  and  _122
REMARK   52  A    between atoms: _121  and  _124
REMARK   53  A    between atoms: _124  and  _125
REMARK   54  A    between atoms: _129  and  _130
REMARK   55  A    between atoms: _135  and  _137
REMARK   56  A    between atoms: _137  and  _138
REMARK   57  A    between atoms: _141  and  _143
REMARK   58  A    between atoms: _143  and  _144
REMARK   59  A    between atoms: _146  and  _148
REMARK   60  A    between atoms: _148  and  _149
REMARK   61  A    between atoms: _148  and  _151
REMARK   62  A    between atoms: _151  and  _152
REMARK   63  A    between atoms: _152  and  _153
REMARK   64  A    between atoms: _153  and  _154
REMARK   65  A    between atoms: _163  and  _165
REMARK   66  A    between atoms: _165  and  _166
REMARK   67  A    between atoms: _165  and  _168
REMARK   68  A    between atoms: _168  and  _169
REMARK   69  A    between atoms: _175  and  _177
REMARK   70  A    between atoms: _177  and  _178
REMARK   71  A    between atoms: _177  and  _180
REMARK   72  A    between atoms: _180  and  _181
REMARK   73  A    between atoms: _185  and  _186
REMARK   74  A    between atoms: _191  and  _193
REMARK   75  A    between atoms: _193  and  _194
REMARK   76  A    between atoms: _193  and  _196
REMARK   77  A    between atoms: _196  and  _197
REMARK   78  A    between atoms: _200  and  _202
REMARK   79  A    between atoms: _202  and  _203
REMARK   80  A    between atoms: _202  and  _205
REMARK   81  A    between atoms: _205  and  _206
REMARK   82  A    between atoms: _206  and  _207
REMARK   83  A    between atoms: _210  and  _212
REMARK   84  A    between atoms: _212  and  _213
REMARK   85  A    between atoms: _212  and  _215
REMARK   86  A    between atoms: _215  and  _216
REMARK   87  A    between atoms: _219  and  _221
REMARK   88  A    between atoms: _221  and  _222
REMARK   89  A    between atoms: _225  and  _227
REMARK   90  A    between atoms: _227  and  _228
REMARK   91  A    between atoms: _227  and  _230
REMARK   92  A    between atoms: _230  and  _231
REMARK   93  A    between atoms: _234  and  _236
REMARK   94  A    between atoms: _236  and  _237
REMARK   95  A    between atoms: _236  and  _239
REMARK   96  A    between atoms: _239  and  _240
REMARK   97  A    between atoms: _243  and  _245
REMARK   98  A    between atoms: _245  and  _246
REMARK   99  A    between atoms: _245  and  _248
REMARK  100  A    between atoms: _248  and  _249
REMARK  101  A    between atoms: _249  and  _250
REMARK  102  A    between atoms: _250  and  _251
REMARK  103  A    between atoms: _260  and  _262
REMARK  104  A    between atoms: _262  and  _263
REMARK  105  A    between atoms: _262  and  _265
REMARK  106  A    between atoms: _265  and  _266
REMARK  107  A    between atoms: _269  and  _271
REMARK  108  A    between atoms: _271  and  _272
REMARK  109  A    between atoms: _271  and  _274
REMARK  110  A    between atoms: _274  and  _275
REMARK  111  A    between atoms: _275  and  _276
REMARK  112  A    between atoms: _278  and  _280
REMARK  113  A    between atoms: _280  and  _281
REMARK  114  A    between atoms: _280  and  _283
REMARK  115  A    between atoms: _283  and  _284
REMARK  116  A    between atoms: _287  and  _289
REMARK  117  A    between atoms: _289  and  _290
REMARK  118  A    between atoms: _289  and  _292
REMARK  119  A    between atoms: _295  and  _297
REMARK  120  A    between atoms: _297  and  _298
REMARK  121  A    between atoms: _301  and  _303
REMARK  122  A    between atoms: _303  and  _304
REMARK  123  A    between atoms: _303  and  _306
REMARK  124  A    between atoms: _306  and  _307
REMARK  125  A    between atoms: _310  and  _312
REMARK  126  A    between atoms: _312  and  _313
REMARK  127  A    between atoms: _312  and  _315
REMARK  128  A    between atoms: _315  and  _316
REMARK  129  A    between atoms: _321  and  _323
REMARK  130  A    between atoms: _323  and  _324
REMARK  131  A    between atoms: _323  and  _326
REMARK  132  A    between atoms: _326  and  _327
REMARK  133  A    between atoms: _330  and  _332
REMARK  134  A    between atoms: _332  and  _333
REMARK  135  A    between atoms: _332  and  _335
REMARK  136  A    between atoms: _335  and  _336
REMARK  137  A    between atoms: _338  and  _340
REMARK  138  A    between atoms: _340  and  _341
REMARK  139  A    between atoms: _340  and  _343
REMARK  140  A    between atoms: _343  and  _344
REMARK  141  A    between atoms: _346  and  _348
REMARK  142  A    between atoms: _348  and  _349
REMARK  143  A    between atoms: _352  and  _354
REMARK  144  A    between atoms: _354  and  _355
REMARK  145  A    between atoms: _354  and  _357
REMARK  146  A    between atoms: _357  and  _358
REMARK  147  A    between atoms: _361  and  _363
REMARK  148  A    between atoms: _363  and  _364
REMARK  149  A    between atoms: _363  and  _366
REMARK  150  A    between atoms: _366  and  _367
REMARK  151  A    between atoms: _367  and  _368
REMARK  152  A    between atoms: _371  and  _373
REMARK  153  A    between atoms: _373  and  _374
REMARK  154  A    between atoms: _373  and  _376
REMARK  155  A    between atoms: _376  and  _377
REMARK  156  A    between atoms: _380  and  _382
REMARK  157  A    between atoms: _382  and  _383
REMARK  158  A    between atoms: _385  and  _387
REMARK  159  A    between atoms: _387  and  _388
REMARK  160  A    between atoms: _387  and  _390
REMARK  161  A    between atoms: _390  and  _391
REMARK  162  A    between atoms: _391  and  _392
REMARK  163  A    between atoms: _395  and  _397
REMARK  164  A    between atoms: _397  and  _398
REMARK  165  A    between atoms: _397  and  _400
REMARK  166  A    between atoms: _400  and  _401
REMARK  167  A    between atoms: _401  and  _402
REMARK  168  A    between atoms: _405  and  _407
REMARK  169  A    between atoms: _407  and  _408
REMARK  170  A    between atoms: _407  and  _410
REMARK  171  A    between atoms: _410  and  _411
REMARK  172  A    between atoms: _411  and  _412
REMARK  173  A    between atoms: _417  and  _419
REMARK  174  A    between atoms: _419  and  _420
REMARK  175  A    between atoms: _419  and  _422
REMARK  176  A    between atoms: _422  and  _423
REMARK  177  A    between atoms: _423  and  _424
REMARK  178  A    between atoms: _429  and  _431
REMARK  179  A    between atoms: _431  and  _432
REMARK  180  A    between atoms: _431  and  _434
REMARK  181  A    between atoms: _434  and  _435
REMARK  182  A    between atoms: _435  and  _436
REMARK  183  A    between atoms: _436  and  _437
REMARK  184  A    between atoms: _446  and  _448
REMARK  185  A    between atoms: _448  and  _449
REMARK  186  A    between atoms: _448  and  _451
REMARK  187  A    between atoms: _451  and  _452
REMARK  188  A    between atoms: _457  and  _458
REMARK  189  A    between atoms: _460  and  _462
REMARK  190  A    between atoms: _462  and  _463
REMARK  191  A    between atoms: _462  and  _465
REMARK  192  A    between atoms: _465  and  _466
REMARK  193  A    between atoms: _466  and  _467
REMARK  194  A    between atoms: _467  and  _468
REMARK  195  A    between atoms: _468  and  _469
REMARK  196  A    between atoms: _473  and  _475
REMARK  197  A    between atoms: _475  and  _476
REMARK  198  A    between atoms: _475  and  _478
REMARK  199  A    between atoms: _478  and  _479
REMARK  200  A    between atoms: _482  and  _484
REMARK  201  A    between atoms: _484  and  _485
REMARK  202  A    between atoms: _487  and  _489
REMARK  203  A    between atoms: _489  and  _490
REMARK  204  A    between atoms: _489  and  _492
REMARK  205  A    between atoms: _492  and  _493
REMARK  206  A    between atoms: _496  and  _498
REMARK  207  A    between atoms: _498  and  _499
REMARK  208  A    between atoms: _498  and  _501
REMARK  209  A    between atoms: _501  and  _502
REMARK  210  A    between atoms: _502  and  _503
REMARK  211  A    between atoms: _503  and  _504
REMARK  212  A    between atoms: _513  and  _515
REMARK  213  A    between atoms: _515  and  _516
REMARK  214  A    between atoms: _515  and  _518
REMARK  215  A    between atoms: _518  and  _519
REMARK  216  A    between atoms: _519  and  _520
REMARK  217  A    between atoms: _523  and  _525
REMARK  218  A    between atoms: _525  and  _526
REMARK  219  A    between atoms: _525  and  _528
REMARK  220  A    between atoms: _528  and  _529
REMARK  221  A    between atoms: _529  and  _530
REMARK  222  A    between atoms: _530  and  _531
REMARK  223  A    between atoms: _540  and  _542
REMARK  224  A    between atoms: _542  and  _543
REMARK  225  A    between atoms: _542  and  _545
REMARK  226  A    between atoms: _548  and  _550
REMARK  227  A    between atoms: _550  and  _551
REMARK  228  A    between atoms: _550  and  _553
REMARK  229  A    between atoms: _553  and  _554
REMARK  230  A    between atoms: _554  and  _555
REMARK  231  A    between atoms: _558  and  _560
REMARK  232  A    between atoms: _560  and  _561
REMARK  233  A    between atoms: _560  and  _563
REMARK  234  A    between atoms: _563  and  _564
REMARK  235  A    between atoms: _567  and  _569
REMARK  236  A    between atoms: _569  and  _570
REMARK  237  A    between atoms: _569  and  _572
REMARK  238  A    between atoms: _572  and  _573
REMARK  239  A    between atoms: _573  and  _574
REMARK  240  A    between atoms: _577  and  _579
REMARK  241  A    between atoms: _579  and  _580
REMARK  242  A    between atoms: _579  and  _582
REMARK  243  A    between atoms: _582  and  _583
REMARK  244  A    between atoms: _583  and  _584
REMARK  245  A    between atoms: _589  and  _591
REMARK  246  A    between atoms: _591  and  _592
REMARK  247  A    between atoms: _594  and  _596
REMARK  248  A    between atoms: _596  and  _597
REMARK  249  A    between atoms: _596  and  _599
REMARK  250  A    between atoms: _599  and  _600
REMARK  251  A    between atoms: _600  and  _601
REMARK  252  A    between atoms: _606  and  _608
REMARK  253  A    between atoms: _608  and  _609
REMARK  254  A    between atoms: _608  and  _611
REMARK  255  A    between atoms: _611  and  _612
REMARK  256  A    between atoms: _615  and  _617
REMARK  257  A    between atoms: _617  and  _618
REMARK  258  A    between atoms: _617  and  _620
REMARK  259  A    between atoms: _620  and  _621
REMARK  260  A    between atoms: _627  and  _629
REMARK  261  A    between atoms: _629  and  _630
REMARK  262  A    between atoms: _632  and  _634
REMARK  263  A    between atoms: _634  and  _635
REMARK  264  A    between atoms: _634  and  _637
REMARK  265  A    between atoms: _637  and  _638
REMARK  266  A    between atoms: _638  and  _639
REMARK  267  A    between atoms: _643  and  _644
REMARK                            x       y       z     vdW  Elec       q    Type
REMARK                         _______ _______ _______ _____ _____    ______ ____
ROOT
ATOM      1  O   HOH     1      25.742  34.499   6.066  0.00  0.00    +0.000 OA
ENDROOT
TORSDOF 0
REMARK  Name = ../refined-set-2016/3pju/3pju_pocket.pdb
REMARK  267 active torsions:
REMARK  status: ('A' for Active; 'I' for Inactive)
REMARK    1  A    between atoms: _1  and  _3
REMARK    2  A    between atoms: _3  and  _4
REMARK    3  A    between atoms: _3  and  _6
REMARK    4  A    between atoms: _6  and  _7
REMARK    5  A    between atoms: _13  and  _15
REMARK    6  A    between atoms: _15  and  _16
REMARK    7  A    between atoms: _15  and  _18
REMARK    8  A    between atoms: _18  and  _19
REMARK    9  A    between atoms: _19  and  _20
REMARK   10  A    between atoms: _23  and  _25
REMARK   11  A    between atoms: _25  and  _26
REMARK   12  A    between atoms: _25  and  _28
REMARK   13  A    between atoms: _28  and  _29
REMARK   14  A    between atoms: _32  and  _34
REMARK   15  A    between atoms: _34  and  _35
REMARK   16  A    between atoms: _34  and  _37
REMARK   17  A    between atoms: _37  and  _38
REMARK   18  A    between atoms: _44  and  _46
REMARK   19  A    between atoms: _46  and  _47
REMARK   20  A    between atoms: _46  and  _49
REMARK   21  A    between atoms: _49  and  _50
REMARK   22  A    between atoms: _50  and  _51
REMARK   23  A    between atoms: _56  and  _58
REMARK   24  A    between atoms: _58  and  _59
REMARK   25  A    between atoms: _58  and  _61
REMARK   26  A    between atoms: _64  and  _66
REMARK   27  A    between atoms: _66  and  _67
REMARK   28  A    between atoms: _66  and  _69
REMARK   29  A    between atoms: _69  and  _70
REMARK   30  A    between atoms: _70  and  _71
REMARK   31  A    between atoms: _71  and  _72
REMARK   32  A    between atoms: _72  and  _73
REMARK   33  A    between atoms: _77  and  _79
REMARK   34  A    between atoms: _79  and  _80
REMARK   35  A    between atoms: _79  and  _82
REMARK   36  A    between atoms: _85  and  _87
REMARK   37  A    between atoms: _87  and  _88
REMARK   38  A    between atoms: _87  and  _90
REMARK   39  A    between atoms: _90  and  _91
REMARK   40  A    between atoms: _94  and  _96
REMARK   41  A    between atoms: _96  and  _97
REMARK   42  A    between atoms: _96  and  _99
REMARK   43  A    between atoms: _99  and  _100
REMARK   44  A    between atoms: _102  and  _104
REMARK   45  A    between atoms: _104  and  _105
REMARK   46  A    between atoms: _104  and  _107
REMARK   47  A    between atoms: _107  and  _108
REMARK   48  A    between atoms: _108  and  _109
REMARK   49  A    between atoms: _109  and  _110
REMARK   50  A    between atoms: _119  and  _121
REMARK   51  A    between atoms: _121  and  _122
REMARK   52  A    between atoms: _121  and  _124
REMARK   53  A    between atoms: _124  and  _125
REMARK   54  A    between atoms: _129  and  _130
REMARK   55  A    between atoms: _135  and  _137
REMARK   56  A    between atoms: _137  and  _138
REMARK   57  A    between atoms: _141  and  _143
REMARK   58  A    between atoms: _143  and  _144
REMARK   59  A    between atoms: _146  and  _148
REMARK   60  A    between atoms: _148  and  _149
REMARK   61  A    between atoms: _148  and  _151
REMARK   62  A    between atoms: _151  and  _152
REMARK   63  A    between atoms: _152  and  _153
REMARK   64  A    between atoms: _153  and  _154
REMARK   65  A    between atoms: _163  and  _165
REMARK   66  A    between atoms: _165  and  _166
REMARK   67  A    between atoms: _165  and  _168
REMARK   68  A    between atoms: _168  and  _169
REMARK   69  A    between atoms: _175  and  _177
REMARK   70  A    between atoms: _177  and  _178
REMARK   71  A    between atoms: _177  and  _180
REMARK   72  A    between atoms: _180  and  _181
REMARK   73  A    between atoms: _185  and  _186
REMARK   74  A    between atoms: _191  and  _193
REMARK   75  A    between atoms: _193  and  _194
REMARK   76  A    between atoms: _193  and  _196
REMARK   77  A    between atoms: _196  and  _197
REMARK   78  A    between atoms: _200  and  _202
REMARK   79  A    between atoms: _202  and  _203
REMARK   80  A    between atoms: _202  and  _205
REMARK   81  A    between atoms: _205  and  _206
REMARK   82  A    between atoms: _206  and  _207
REMARK   83  A    between atoms: _210  and  _212
REMARK   84  A    between atoms: _212  and  _213
REMARK   85  A    between atoms: _212  and  _215
REMARK   86  A    between atoms: _215  and  _216
REMARK   87  A    between atoms: _219  and  _221
REMARK   88  A    between atoms: _221  and  _222
REMARK   89  A    between atoms: _225  and  _227
REMARK   90  A    between atoms: _227  and  _228
REMARK   91  A    between atoms: _227  and  _230
REMARK   92  A    between atoms: _230  and  _231
REMARK   93  A    between atoms: _234  and  _236
REMARK   94  A    between atoms: _236  and  _237
REMARK   95  A    between atoms: _236  and  _239
REMARK   96  A    between atoms: _239  and  _240
REMARK   97  A    between atoms: _243  and  _245
REMARK   98  A    between atoms: _245  and  _246
REMARK   99  A    between atoms: _245  and  _248
REMARK  100  A    between atoms: _248  and  _249
REMARK  101  A    between atoms: _249  and  _250
REMARK  102  A    between atoms: _250  and  _251
REMARK  103  A    between atoms: _260  and  _262
REMARK  104  A    between atoms: _262  and  _263
REMARK  105  A    between atoms: _262  and  _265
REMARK  106  A    between atoms: _265  and  _266
REMARK  107  A    between atoms: _269  and  _271
REMARK  108  A    between atoms: _271  and  _272
REMARK  109  A    between atoms: _271  and  _274
REMARK  110  A    between atoms: _274  and  _275
REMARK  111  A    between atoms: _275  and  _276
REMARK  112  A    between atoms: _278  and  _280
REMARK  113  A    between atoms: _280  and  _281
REMARK  114  A    between atoms: _280  and  _283
REMARK  115  A    between atoms: _283  and  _284
REMARK  116  A    between atoms: _287  and  _289
REMARK  117  A    between atoms: _289  and  _290
REMARK  118  A    between atoms: _289  and  _292
REMARK  119  A    between atoms: _295  and  _297
REMARK  120  A    between atoms: _297  and  _298
REMARK  121  A    between atoms: _301  and  _303
REMARK  122  A    between atoms: _303  and  _304
REMARK  123  A    between atoms: _303  and  _306
REMARK  124  A    between atoms: _306  and  _307
REMARK  125  A    between atoms: _310  and  _312
REMARK  126  A    between atoms: _312  and  _313
REMARK  127  A    between atoms: _312  and  _315
REMARK  128  A    between atoms: _315  and  _316
REMARK  129  A    between atoms: _321  and  _323
REMARK  130  A    between atoms: _323  and  _324
REMARK  131  A    between atoms: _323  and  _326
REMARK  132  A    between atoms: _326  and  _327
REMARK  133  A    between atoms: _330  and  _332
REMARK  134  A    between atoms: _332  and  _333
REMARK  135  A    between atoms: _332  and  _335
REMARK  136  A    between atoms: _335  and  _336
REMARK  137  A    between atoms: _338  and  _340
REMARK  138  A    between atoms: _340  and  _341
REMARK  139  A    between atoms: _340  and  _343
REMARK  140  A    between atoms: _343  and  _344
REMARK  141  A    between atoms: _346  and  _348
REMARK  142  A    between atoms: _348  and  _349
REMARK  143  A    between atoms: _352  and  _354
REMARK  144  A    between atoms: _354  and  _355
REMARK  145  A    between atoms: _354  and  _357
REMARK  146  A    between atoms: _357  and  _358
REMARK  147  A    between atoms: _361  and  _363
REMARK  148  A    between atoms: _363  and  _364
REMARK  149  A    between atoms: _363  and  _366
REMARK  150  A    between atoms: _366  and  _367
REMARK  151  A    between atoms: _367  and  _368
REMARK  152  A    between atoms: _371  and  _373
REMARK  153  A    between atoms: _373  and  _374
REMARK  154  A    between atoms: _373  and  _376
REMARK  155  A    between atoms: _376  and  _377
REMARK  156  A    between atoms: _380  and  _382
REMARK  157  A    between atoms: _382  and  _383
REMARK  158  A    between atoms: _385  and  _387
REMARK  159  A    between atoms: _387  and  _388
REMARK  160  A    between atoms: _387  and  _390
REMARK  161  A    between atoms: _390  and  _391
REMARK  162  A    between atoms: _391  and  _392
REMARK  163  A    between atoms: _395  and  _397
REMARK  164  A    between atoms: _397  and  _398
REMARK  165  A    between atoms: _397  and  _400
REMARK  166  A    between atoms: _400  and  _401
REMARK  167  A    between atoms: _401  and  _402
REMARK  168  A    between atoms: _405  and  _407
REMARK  169  A    between atoms: _407  and  _408
REMARK  170  A    between atoms: _407  and  _410
REMARK  171  A    between atoms: _410  and  _411
REMARK  172  A    between atoms: _411  and  _412
REMARK  173  A    between atoms: _417  and  _419
REMARK  174  A    between atoms: _419  and  _420
REMARK  175  A    between atoms: _419  and  _422
REMARK  176  A    between atoms: _422  and  _423
REMARK  177  A    between atoms: _423  and  _424
REMARK  178  A    between atoms: _429  and  _431
REMARK  179  A    between atoms: _431  and  _432
REMARK  180  A    between atoms: _431  and  _434
REMARK  181  A    between atoms: _434  and  _435
REMARK  182  A    between atoms: _435  and  _436
REMARK  183  A    between atoms: _436  and  _437
REMARK  184  A    between atoms: _446  and  _448
REMARK  185  A    between atoms: _448  and  _449
REMARK  186  A    between atoms: _448  and  _451
REMARK  187  A    between atoms: _451  and  _452
REMARK  188  A    between atoms: _457  and  _458
REMARK  189  A    between atoms: _460  and  _462
REMARK  190  A    between atoms: _462  and  _463
REMARK  191  A    between atoms: _462  and  _465
REMARK  192  A    between atoms: _465  and  _466
REMARK  193  A    between atoms: _466  and  _467
REMARK  194  A    between atoms: _467  and  _468
REMARK  195  A    between atoms: _468  and  _469
REMARK  196  A    between atoms: _473  and  _475
REMARK  197  A    between atoms: _475  and  _476
REMARK  198  A    between atoms: _475  and  _478
REMARK  199  A    between atoms: _478  and  _479
REMARK  200  A    between atoms: _482  and  _484
REMARK  201  A    between atoms: _484  and  _485
REMARK  202  A    between atoms: _487  and  _489
REMARK  203  A    between atoms: _489  and  _490
REMARK  204  A    between atoms: _489  and  _492
REMARK  205  A    between atoms: _492  and  _493
REMARK  206  A    between atoms: _496  and  _498
REMARK  207  A    between atoms: _498  and  _499
REMARK  208  A    between atoms: _498  and  _501
REMARK  209  A    between atoms: _501  and  _502
REMARK  210  A    between atoms: _502  and  _503
REMARK  211  A    between atoms: _503  and  _504
REMARK  212  A    between atoms: _513  and  _515
REMARK  213  A    between atoms: _515  and  _516
REMARK  214  A    between atoms: _515  and  _518
REMARK  215  A    between atoms: _518  and  _519
REMARK  216  A    between atoms: _519  and  _520
REMARK  217  A    between atoms: _523  and  _525
REMARK  218  A    between atoms: _525  and  _526
REMARK  219  A    between atoms: _525  and  _528
REMARK  220  A    between atoms: _528  and  _529
REMARK  221  A    between atoms: _529  and  _530
REMARK  222  A    between atoms: _530  and  _531
REMARK  223  A    between atoms: _540  and  _542
REMARK  224  A    between atoms: _542  and  _543
REMARK  225  A    between atoms: _542  and  _545
REMARK  226  A    between atoms: _548  and  _550
REMARK  227  A    between atoms: _550  and  _551
REMARK  228  A    between atoms: _550  and  _553
REMARK  229  A    between atoms: _553  and  _554
REMARK  230  A    between atoms: _554  and  _555
REMARK  231  A    between atoms: _558  and  _560
REMARK  232  A    between atoms: _560  and  _561
REMARK  233  A    between atoms: _560  and  _563
REMARK  234  A    between atoms: _563  and  _564
REMARK  235  A    between atoms: _567  and  _569
REMARK  236  A    between atoms: _569  and  _570
REMARK  237  A    between atoms: _569  and  _572
REMARK  238  A    between atoms: _572  and  _573
REMARK  239  A    between atoms: _573  and  _574
REMARK  240  A    between atoms: _577  and  _579
REMARK  241  A    between atoms: _579  and  _580
REMARK  242  A    between atoms: _579  and  _582
REMARK  243  A    between atoms: _582  and  _583
REMARK  244  A    between atoms: _583  and  _584
REMARK  245  A    between atoms: _589  and  _591
REMARK  246  A    between atoms: _591  and  _592
REMARK  247  A    between atoms: _594  and  _596
REMARK  248  A    between atoms: _596  and  _597
REMARK  249  A    between atoms: _596  and  _599
REMARK  250  A    between atoms: _599  and  _600
REMARK  251  A    between atoms: _600  and  _601
REMARK  252  A    between atoms: _606  and  _608
REMARK  253  A    between atoms: _608  and  _609
REMARK  254  A    between atoms: _608  and  _611
REMARK  255  A    between atoms: _611  and  _612
REMARK  256  A    between atoms: _615  and  _617
REMARK  257  A    between atoms: _617  and  _618
REMARK  258  A    between atoms: _617  and  _620
REMARK  259  A    between atoms: _620  and  _621
REMARK  260  A    between atoms: _627  and  _629
REMARK  261  A    between atoms: _629  and  _630
REMARK  262  A    between atoms: _632  and  _634
REMARK  263  A    between atoms: _634  and  _635
REMARK  264  A    between atoms: _634  and  _637
REMARK  265  A    between atoms: _637  and  _638
REMARK  266  A    between atoms: _638  and  _639
REMARK  267  A    between atoms: _643  and  _644
REMARK                            x       y       z     vdW  Elec       q    Type
REMARK                         _______ _______ _______ _____ _____    ______ ____
ROOT
ATOM      1  O   HOH     1      24.922  39.351  -8.308  0.00  0.00    +0.000 OA
ENDROOT
TORSDOF 0
REMARK  Name = ../refined-set-2016/3pju/3pju_pocket.pdb
REMARK  267 active torsions:
REMARK  status: ('A' for Active; 'I' for Inactive)
REMARK    1  A    between atoms: _1  and  _3
REMARK    2  A    between atoms: _3  and  _4
REMARK    3  A    between atoms: _3  and  _6
REMARK    4  A    between atoms: _6  and  _7
REMARK    5  A    between atoms: _13  and  _15
REMARK    6  A    between atoms: _15  and  _16
REMARK    7  A    between atoms: _15  and  _18
REMARK    8  A    between atoms: _18  and  _19
REMARK    9  A    between atoms: _19  and  _20
REMARK   10  A    between atoms: _23  and  _25
REMARK   11  A    between atoms: _25  and  _26
REMARK   12  A    between atoms: _25  and  _28
REMARK   13  A    between atoms: _28  and  _29
REMARK   14  A    between atoms: _32  and  _34
REMARK   15  A    between atoms: _34  and  _35
REMARK   16  A    between atoms: _34  and  _37
REMARK   17  A    between atoms: _37  and  _38
REMARK   18  A    between atoms: _44  and  _46
REMARK   19  A    between atoms: _46  and  _47
REMARK   20  A    between atoms: _46  and  _49
REMARK   21  A    between atoms: _49  and  _50
REMARK   22  A    between atoms: _50  and  _51
REMARK   23  A    between atoms: _56  and  _58
REMARK   24  A    between atoms: _58  and  _59
REMARK   25  A    between atoms: _58  and  _61
REMARK   26  A    between atoms: _64  and  _66
REMARK   27  A    between atoms: _66  and  _67
REMARK   28  A    between atoms: _66  and  _69
REMARK   29  A    between atoms: _69  and  _70
REMARK   30  A    between atoms: _70  and  _71
REMARK   31  A    between atoms: _71  and  _72
REMARK   32  A    between atoms: _72  and  _73
REMARK   33  A    between atoms: _77  and  _79
REMARK   34  A    between atoms: _79  and  _80
REMARK   35  A    between atoms: _79  and  _82
REMARK   36  A    between atoms: _85  and  _87
REMARK   37  A    between atoms: _87  and  _88
REMARK   38  A    between atoms: _87  and  _90
REMARK   39  A    between atoms: _90  and  _91
REMARK   40  A    between atoms: _94  and  _96
REMARK   41  A    between atoms: _96  and  _97
REMARK   42  A    between atoms: _96  and  _99
REMARK   43  A    between atoms: _99  and  _100
REMARK   44  A    between atoms: _102  and  _104
REMARK   45  A    between atoms: _104  and  _105
REMARK   46  A    between atoms: _104  and  _107
REMARK   47  A    between atoms: _107  and  _108
REMARK   48  A    between atoms: _108  and  _109
REMARK   49  A    between atoms: _109  and  _110
REMARK   50  A    between atoms: _119  and  _121
REMARK   51  A    between atoms: _121  and  _122
REMARK   52  A    between atoms: _121  and  _124
REMARK   53  A    between atoms: _124  and  _125
REMARK   54  A    between atoms: _129  and  _130
REMARK   55  A    between atoms: _135  and  _137
REMARK   56  A    between atoms: _137  and  _138
REMARK   57  A    between atoms: _141  and  _143
REMARK   58  A    between atoms: _143  and  _144
REMARK   59  A    between atoms: _146  and  _148
REMARK   60  A    between atoms: _148  and  _149
REMARK   61  A    between atoms: _148  and  _151
REMARK   62  A    between atoms: _151  and  _152
REMARK   63  A    between atoms: _152  and  _153
REMARK   64  A    between atoms: _153  and  _154
REMARK   65  A    between atoms: _163  and  _165
REMARK   66  A    between atoms: _165  and  _166
REMARK   67  A    between atoms: _165  and  _168
REMARK   68  A    between atoms: _168  and  _169
REMARK   69  A    between atoms: _175  and  _177
REMARK   70  A    between atoms: _177  and  _178
REMARK   71  A    between atoms: _177  and  _180
REMARK   72  A    between atoms: _180  and  _181
REMARK   73  A    between atoms: _185  and  _186
REMARK   74  A    between atoms: _191  and  _193
REMARK   75  A    between atoms: _193  and  _194
REMARK   76  A    between atoms: _193  and  _196
REMARK   77  A    between atoms: _196  and  _197
REMARK   78  A    between atoms: _200  and  _202
REMARK   79  A    between atoms: _202  and  _203
REMARK   80  A    between atoms: _202  and  _205
REMARK   81  A    between atoms: _205  and  _206
REMARK   82  A    between atoms: _206  and  _207
REMARK   83  A    between atoms: _210  and  _212
REMARK   84  A    between atoms: _212  and  _213
REMARK   85  A    between atoms: _212  and  _215
REMARK   86  A    between atoms: _215  and  _216
REMARK   87  A    between atoms: _219  and  _221
REMARK   88  A    between atoms: _221  and  _222
REMARK   89  A    between atoms: _225  and  _227
REMARK   90  A    between atoms: _227  and  _228
REMARK   91  A    between atoms: _227  and  _230
REMARK   92  A    between atoms: _230  and  _231
REMARK   93  A    between atoms: _234  and  _236
REMARK   94  A    between atoms: _236  and  _237
REMARK   95  A    between atoms: _236  and  _239
REMARK   96  A    between atoms: _239  and  _240
REMARK   97  A    between atoms: _243  and  _245
REMARK   98  A    between atoms: _245  and  _246
REMARK   99  A    between atoms: _245  and  _248
REMARK  100  A    between atoms: _248  and  _249
REMARK  101  A    between atoms: _249  and  _250
REMARK  102  A    between atoms: _250  and  _251
REMARK  103  A    between atoms: _260  and  _262
REMARK  104  A    between atoms: _262  and  _263
REMARK  105  A    between atoms: _262  and  _265
REMARK  106  A    between atoms: _265  and  _266
REMARK  107  A    between atoms: _269  and  _271
REMARK  108  A    between atoms: _271  and  _272
REMARK  109  A    between atoms: _271  and  _274
REMARK  110  A    between atoms: _274  and  _275
REMARK  111  A    between atoms: _275  and  _276
REMARK  112  A    between atoms: _278  and  _280
REMARK  113  A    between atoms: _280  and  _281
REMARK  114  A    between atoms: _280  and  _283
REMARK  115  A    between atoms: _283  and  _284
REMARK  116  A    between atoms: _287  and  _289
REMARK  117  A    between atoms: _289  and  _290
REMARK  118  A    between atoms: _289  and  _292
REMARK  119  A    between atoms: _295  and  _297
REMARK  120  A    between atoms: _297  and  _298
REMARK  121  A    between atoms: _301  and  _303
REMARK  122  A    between atoms: _303  and  _304
REMARK  123  A    between atoms: _303  and  _306
REMARK  124  A    between atoms: _306  and  _307
REMARK  125  A    between atoms: _310  and  _312
REMARK  126  A    between atoms: _312  and  _313
REMARK  127  A    between atoms: _312  and  _315
REMARK  128  A    between atoms: _315  and  _316
REMARK  129  A    between atoms: _321  and  _323
REMARK  130  A    between atoms: _323  and  _324
REMARK  131  A    between atoms: _323  and  _326
REMARK  132  A    between atoms: _326  and  _327
REMARK  133  A    between atoms: _330  and  _332
REMARK  134  A    between atoms: _332  and  _333
REMARK  135  A    between atoms: _332  and  _335
REMARK  136  A    between atoms: _335  and  _336
REMARK  137  A    between atoms: _338  and  _340
REMARK  138  A    between atoms: _340  and  _341
REMARK  139  A    between atoms: _340  and  _343
REMARK  140  A    between atoms: _343  and  _344
REMARK  141  A    between atoms: _346  and  _348
REMARK  142  A    between atoms: _348  and  _349
REMARK  143  A    between atoms: _352  and  _354
REMARK  144  A    between atoms: _354  and  _355
REMARK  145  A    between atoms: _354  and  _357
REMARK  146  A    between atoms: _357  and  _358
REMARK  147  A    between atoms: _361  and  _363
REMARK  148  A    between atoms: _363  and  _364
REMARK  149  A    between atoms: _363  and  _366
REMARK  150  A    between atoms: _366  and  _367
REMARK  151  A    between atoms: _367  and  _368
REMARK  152  A    between atoms: _371  and  _373
REMARK  153  A    between atoms: _373  and  _374
REMARK  154  A    between atoms: _373  and  _376
REMARK  155  A    between atoms: _376  and  _377
REMARK  156  A    between atoms: _380  and  _382
REMARK  157  A    between atoms: _382  and  _383
REMARK  158  A    between atoms: _385  and  _387
REMARK  159  A    between atoms: _387  and  _388
REMARK  160  A    between atoms: _387  and  _390
REMARK  161  A    between atoms: _390  and  _391
REMARK  162  A    between atoms: _391  and  _392
REMARK  163  A    between atoms: _395  and  _397
REMARK  164  A    between atoms: _397  and  _398
REMARK  165  A    between atoms: _397  and  _400
REMARK  166  A    between atoms: _400  and  _401
REMARK  167  A    between atoms: _401  and  _402
REMARK  168  A    between atoms: _405  and  _407
REMARK  169  A    between atoms: _407  and  _408
REMARK  170  A    between atoms: _407  and  _410
REMARK  171  A    between atoms: _410  and  _411
REMARK  172  A    between atoms: _411  and  _412
REMARK  173  A    between atoms: _417  and  _419
REMARK  174  A    between atoms: _419  and  _420
REMARK  175  A    between atoms: _419  and  _422
REMARK  176  A    between atoms: _422  and  _423
REMARK  177  A    between atoms: _423  and  _424
REMARK  178  A    between atoms: _429  and  _431
REMARK  179  A    between atoms: _431  and  _432
REMARK  180  A    between atoms: _431  and  _434
REMARK  181  A    between atoms: _434  and  _435
REMARK  182  A    between atoms: _435  and  _436
REMARK  183  A    between atoms: _436  and  _437
REMARK  184  A    between atoms: _446  and  _448
REMARK  185  A    between atoms: _448  and  _449
REMARK  186  A    between atoms: _448  and  _451
REMARK  187  A    between atoms: _451  and  _452
REMARK  188  A    between atoms: _457  and  _458
REMARK  189  A    between atoms: _460  and  _462
REMARK  190  A    between atoms: _462  and  _463
REMARK  191  A    between atoms: _462  and  _465
REMARK  192  A    between atoms: _465  and  _466
REMARK  193  A    between atoms: _466  and  _467
REMARK  194  A    between atoms: _467  and  _468
REMARK  195  A    between atoms: _468  and  _469
REMARK  196  A    between atoms: _473  and  _475
REMARK  197  A    between atoms: _475  and  _476
REMARK  198  A    between atoms: _475  and  _478
REMARK  199  A    between atoms: _478  and  _479
REMARK  200  A    between atoms: _482  and  _484
REMARK  201  A    between atoms: _484  and  _485
REMARK  202  A    between atoms: _487  and  _489
REMARK  203  A    between atoms: _489  and  _490
REMARK  204  A    between atoms: _489  and  _492
REMARK  205  A    between atoms: _492  and  _493
REMARK  206  A    between atoms: _496  and  _498
REMARK  207  A    between atoms: _498  and  _499
REMARK  208  A    between atoms: _498  and  _501
REMARK  209  A    between atoms: _501  and  _502
REMARK  210  A    between atoms: _502  and  _503
REMARK  211  A    between atoms: _503  and  _504
REMARK  212  A    between atoms: _513  and  _515
REMARK  213  A    between atoms: _515  and  _516
REMARK  214  A    between atoms: _515  and  _518
REMARK  215  A    between atoms: _518  and  _519
REMARK  216  A    between atoms: _519  and  _520
REMARK  217  A    between atoms: _523  and  _525
REMARK  218  A    between atoms: _525  and  _526
REMARK  219  A    between atoms: _525  and  _528
REMARK  220  A    between atoms: _528  and  _529
REMARK  221  A    between atoms: _529  and  _530
REMARK  222  A    between atoms: _530  and  _531
REMARK  223  A    between atoms: _540  and  _542
REMARK  224  A    between atoms: _542  and  _543
REMARK  225  A    between atoms: _542  and  _545
REMARK  226  A    between atoms: _548  and  _550
REMARK  227  A    between atoms: _550  and  _551
REMARK  228  A    between atoms: _550  and  _553
REMARK  229  A    between atoms: _553  and  _554
REMARK  230  A    between atoms: _554  and  _555
REMARK  231  A    between atoms: _558  and  _560
REMARK  232  A    between atoms: _560  and  _561
REMARK  233  A    between atoms: _560  and  _563
REMARK  234  A    between atoms: _563  and  _564
REMARK  235  A    between atoms: _567  and  _569
REMARK  236  A    between atoms: _569  and  _570
REMARK  237  A    between atoms: _569  and  _572
REMARK  238  A    between atoms: _572  and  _573
REMARK  239  A    between atoms: _573  and  _574
REMARK  240  A    between atoms: _577  and  _579
REMARK  241  A    between atoms: _579  and  _580
REMARK  242  A    between atoms: _579  and  _582
REMARK  243  A    between atoms: _582  and  _583
REMARK  244  A    between atoms: _583  and  _584
REMARK  245  A    between atoms: _589  and  _591
REMARK  246  A    between atoms: _591  and  _592
REMARK  247  A    between atoms: _594  and  _596
REMARK  248  A    between atoms: _596  and  _597
REMARK  249  A    between atoms: _596  and  _599
REMARK  250  A    between atoms: _599  and  _600
REMARK  251  A    between atoms: _600  and  _601
REMARK  252  A    between atoms: _606  and  _608
REMARK  253  A    between atoms: _608  and  _609
REMARK  254  A    between atoms: _608  and  _611
REMARK  255  A    between atoms: _611  and  _612
REMARK  256  A    between atoms: _615  and  _617
REMARK  257  A    between atoms: _617  and  _618
REMARK  258  A    between atoms: _617  and  _620
REMARK  259  A    between atoms: _620  and  _621
REMARK  260  A    between atoms: _627  and  _629
REMARK  261  A    between atoms: _629  and  _630
REMARK  262  A    between atoms: _632  and  _634
REMARK  263  A    between atoms: _634  and  _635
REMARK  264  A    between atoms: _634  and  _637
REMARK  265  A    between atoms: _637  and  _638
REMARK  266  A    between atoms: _638  and  _639
REMARK  267  A    between atoms: _643  and  _644
REMARK                            x       y       z     vdW  Elec       q    Type
REMARK                         _______ _______ _______ _____ _____    ______ ____
ROOT
ATOM      1  O   HOH     1      19.528  43.649   1.196  0.00  0.00    +0.000 OA
ENDROOT
TORSDOF 0
REMARK  Name = ../refined-set-2016/3pju/3pju_pocket.pdb
REMARK  267 active torsions:
REMARK  status: ('A' for Active; 'I' for Inactive)
REMARK    1  A    between atoms: _1  and  _3
REMARK    2  A    between atoms: _3  and  _4
REMARK    3  A    between atoms: _3  and  _6
REMARK    4  A    between atoms: _6  and  _7
REMARK    5  A    between atoms: _13  and  _15
REMARK    6  A    between atoms: _15  and  _16
REMARK    7  A    between atoms: _15  and  _18
REMARK    8  A    between atoms: _18  and  _19
REMARK    9  A    between atoms: _19  and  _20
REMARK   10  A    between atoms: _23  and  _25
REMARK   11  A    between atoms: _25  and  _26
REMARK   12  A    between atoms: _25  and  _28
REMARK   13  A    between atoms: _28  and  _29
REMARK   14  A    between atoms: _32  and  _34
REMARK   15  A    between atoms: _34  and  _35
REMARK   16  A    between atoms: _34  and  _37
REMARK   17  A    between atoms: _37  and  _38
REMARK   18  A    between atoms: _44  and  _46
REMARK   19  A    between atoms: _46  and  _47
REMARK   20  A    between atoms: _46  and  _49
REMARK   21  A    between atoms: _49  and  _50
REMARK   22  A    between atoms: _50  and  _51
REMARK   23  A    between atoms: _56  and  _58
REMARK   24  A    between atoms: _58  and  _59
REMARK   25  A    between atoms: _58  and  _61
REMARK   26  A    between atoms: _64  and  _66
REMARK   27  A    between atoms: _66  and  _67
REMARK   28  A    between atoms: _66  and  _69
REMARK   29  A    between atoms: _69  and  _70
REMARK   30  A    between atoms: _70  and  _71
REMARK   31  A    between atoms: _71  and  _72
REMARK   32  A    between atoms: _72  and  _73
REMARK   33  A    between atoms: _77  and  _79
REMARK   34  A    between atoms: _79  and  _80
REMARK   35  A    between atoms: _79  and  _82
REMARK   36  A    between atoms: _85  and  _87
REMARK   37  A    between atoms: _87  and  _88
REMARK   38  A    between atoms: _87  and  _90
REMARK   39  A    between atoms: _90  and  _91
REMARK   40  A    between atoms: _94  and  _96
REMARK   41  A    between atoms: _96  and  _97
REMARK   42  A    between atoms: _96  and  _99
REMARK   43  A    between atoms: _99  and  _100
REMARK   44  A    between atoms: _102  and  _104
REMARK   45  A    between atoms: _104  and  _105
REMARK   46  A    between atoms: _104  and  _107
REMARK   47  A    between atoms: _107  and  _108
REMARK   48  A    between atoms: _108  and  _109
REMARK   49  A    between atoms: _109  and  _110
REMARK   50  A    between atoms: _119  and  _121
REMARK   51  A    between atoms: _121  and  _122
REMARK   52  A    between atoms: _121  and  _124
REMARK   53  A    between atoms: _124  and  _125
REMARK   54  A    between atoms: _129  and  _130
REMARK   55  A    between atoms: _135  and  _137
REMARK   56  A    between atoms: _137  and  _138
REMARK   57  A    between atoms: _141  and  _143
REMARK   58  A    between atoms: _143  and  _144
REMARK   59  A    between atoms: _146  and  _148
REMARK   60  A    between atoms: _148  and  _149
REMARK   61  A    between atoms: _148  and  _151
REMARK   62  A    between atoms: _151  and  _152
REMARK   63  A    between atoms: _152  and  _153
REMARK   64  A    between atoms: _153  and  _154
REMARK   65  A    between atoms: _163  and  _165
REMARK   66  A    between atoms: _165  and  _166
REMARK   67  A    between atoms: _165  and  _168
REMARK   68  A    between atoms: _168  and  _169
REMARK   69  A    between atoms: _175  and  _177
REMARK   70  A    between atoms: _177  and  _178
REMARK   71  A    between atoms: _177  and  _180
REMARK   72  A    between atoms: _180  and  _181
REMARK   73  A    between atoms: _185  and  _186
REMARK   74  A    between atoms: _191  and  _193
REMARK   75  A    between atoms: _193  and  _194
REMARK   76  A    between atoms: _193  and  _196
REMARK   77  A    between atoms: _196  and  _197
REMARK   78  A    between atoms: _200  and  _202
REMARK   79  A    between atoms: _202  and  _203
REMARK   80  A    between atoms: _202  and  _205
REMARK   81  A    between atoms: _205  and  _206
REMARK   82  A    between atoms: _206  and  _207
REMARK   83  A    between atoms: _210  and  _212
REMARK   84  A    between atoms: _212  and  _213
REMARK   85  A    between atoms: _212  and  _215
REMARK   86  A    between atoms: _215  and  _216
REMARK   87  A    between atoms: _219  and  _221
REMARK   88  A    between atoms: _221  and  _222
REMARK   89  A    between atoms: _225  and  _227
REMARK   90  A    between atoms: _227  and  _228
REMARK   91  A    between atoms: _227  and  _230
REMARK   92  A    between atoms: _230  and  _231
REMARK   93  A    between atoms: _234  and  _236
REMARK   94  A    between atoms: _236  and  _237
REMARK   95  A    between atoms: _236  and  _239
REMARK   96  A    between atoms: _239  and  _240
REMARK   97  A    between atoms: _243  and  _245
REMARK   98  A    between atoms: _245  and  _246
REMARK   99  A    between atoms: _245  and  _248
REMARK  100  A    between atoms: _248  and  _249
REMARK  101  A    between atoms: _249  and  _250
REMARK  102  A    between atoms: _250  and  _251
REMARK  103  A    between atoms: _260  and  _262
REMARK  104  A    between atoms: _262  and  _263
REMARK  105  A    between atoms: _262  and  _265
REMARK  106  A    between atoms: _265  and  _266
REMARK  107  A    between atoms: _269  and  _271
REMARK  108  A    between atoms: _271  and  _272
REMARK  109  A    between atoms: _271  and  _274
REMARK  110  A    between atoms: _274  and  _275
REMARK  111  A    between atoms: _275  and  _276
REMARK  112  A    between atoms: _278  and  _280
REMARK  113  A    between atoms: _280  and  _281
REMARK  114  A    between atoms: _280  and  _283
REMARK  115  A    between atoms: _283  and  _284
REMARK  116  A    between atoms: _287  and  _289
REMARK  117  A    between atoms: _289  and  _290
REMARK  118  A    between atoms: _289  and  _292
REMARK  119  A    between atoms: _295  and  _297
REMARK  120  A    between atoms: _297  and  _298
REMARK  121  A    between atoms: _301  and  _303
REMARK  122  A    between atoms: _303  and  _304
REMARK  123  A    between atoms: _303  and  _306
REMARK  124  A    between atoms: _306  and  _307
REMARK  125  A    between atoms: _310  and  _312
REMARK  126  A    between atoms: _312  and  _313
REMARK  127  A    between atoms: _312  and  _315
REMARK  128  A    between atoms: _315  and  _316
REMARK  129  A    between atoms: _321  and  _323
REMARK  130  A    between atoms: _323  and  _324
REMARK  131  A    between atoms: _323  and  _326
REMARK  132  A    between atoms: _326  and  _327
REMARK  133  A    between atoms: _330  and  _332
REMARK  134  A    between atoms: _332  and  _333
REMARK  135  A    between atoms: _332  and  _335
REMARK  136  A    between atoms: _335  and  _336
REMARK  137  A    between atoms: _338  and  _340
REMARK  138  A    between atoms: _340  and  _341
REMARK  139  A    between atoms: _340  and  _343
REMARK  140  A    between atoms: _343  and  _344
REMARK  141  A    between atoms: _346  and  _348
REMARK  142  A    between atoms: _348  and  _349
REMARK  143  A    between atoms: _352  and  _354
REMARK  144  A    between atoms: _354  and  _355
REMARK  145  A    between atoms: _354  and  _357
REMARK  146  A    between atoms: _357  and  _358
REMARK  147  A    between atoms: _361  and  _363
REMARK  148  A    between atoms: _363  and  _364
REMARK  149  A    between atoms: _363  and  _366
REMARK  150  A    between atoms: _366  and  _367
REMARK  151  A    between atoms: _367  and  _368
REMARK  152  A    between atoms: _371  and  _373
REMARK  153  A    between atoms: _373  and  _374
REMARK  154  A    between atoms: _373  and  _376
REMARK  155  A    between atoms: _376  and  _377
REMARK  156  A    between atoms: _380  and  _382
REMARK  157  A    between atoms: _382  and  _383
REMARK  158  A    between atoms: _385  and  _387
REMARK  159  A    between atoms: _387  and  _388
REMARK  160  A    between atoms: _387  and  _390
REMARK  161  A    between atoms: _390  and  _391
REMARK  162  A    between atoms: _391  and  _392
REMARK  163  A    between atoms: _395  and  _397
REMARK  164  A    between atoms: _397  and  _398
REMARK  165  A    between atoms: _397  and  _400
REMARK  166  A    between atoms: _400  and  _401
REMARK  167  A    between atoms: _401  and  _402
REMARK  168  A    between atoms: _405  and  _407
REMARK  169  A    between atoms: _407  and  _408
REMARK  170  A    between atoms: _407  and  _410
REMARK  171  A    between atoms: _410  and  _411
REMARK  172  A    between atoms: _411  and  _412
REMARK  173  A    between atoms: _417  and  _419
REMARK  174  A    between atoms: _419  and  _420
REMARK  175  A    between atoms: _419  and  _422
REMARK  176  A    between atoms: _422  and  _423
REMARK  177  A    between atoms: _423  and  _424
REMARK  178  A    between atoms: _429  and  _431
REMARK  179  A    between atoms: _431  and  _432
REMARK  180  A    between atoms: _431  and  _434
REMARK  181  A    between atoms: _434  and  _435
REMARK  182  A    between atoms: _435  and  _436
REMARK  183  A    between atoms: _436  and  _437
REMARK  184  A    between atoms: _446  and  _448
REMARK  185  A    between atoms: _448  and  _449
REMARK  186  A    between atoms: _448  and  _451
REMARK  187  A    between atoms: _451  and  _452
REMARK  188  A    between atoms: _457  and  _458
REMARK  189  A    between atoms: _460  and  _462
REMARK  190  A    between atoms: _462  and  _463
REMARK  191  A    between atoms: _462  and  _465
REMARK  192  A    between atoms: _465  and  _466
REMARK  193  A    between atoms: _466  and  _467
REMARK  194  A    between atoms: _467  and  _468
REMARK  195  A    between atoms: _468  and  _469
REMARK  196  A    between atoms: _473  and  _475
REMARK  197  A    between atoms: _475  and  _476
REMARK  198  A    between atoms: _475  and  _478
REMARK  199  A    between atoms: _478  and  _479
REMARK  200  A    between atoms: _482  and  _484
REMARK  201  A    between atoms: _484  and  _485
REMARK  202  A    between atoms: _487  and  _489
REMARK  203  A    between atoms: _489  and  _490
REMARK  204  A    between atoms: _489  and  _492
REMARK  205  A    between atoms: _492  and  _493
REMARK  206  A    between atoms: _496  and  _498
REMARK  207  A    between atoms: _498  and  _499
REMARK  208  A    between atoms: _498  and  _501
REMARK  209  A    between atoms: _501  and  _502
REMARK  210  A    between atoms: _502  and  _503
REMARK  211  A    between atoms: _503  and  _504
REMARK  212  A    between atoms: _513  and  _515
REMARK  213  A    between atoms: _515  and  _516
REMARK  214  A    between atoms: _515  and  _518
REMARK  215  A    between atoms: _518  and  _519
REMARK  216  A    between atoms: _519  and  _520
REMARK  217  A    between atoms: _523  and  _525
REMARK  218  A    between atoms: _525  and  _526
REMARK  219  A    between atoms: _525  and  _528
REMARK  220  A    between atoms: _528  and  _529
REMARK  221  A    between atoms: _529  and  _530
REMARK  222  A    between atoms: _530  and  _531
REMARK  223  A    between atoms: _540  and  _542
REMARK  224  A    between atoms: _542  and  _543
REMARK  225  A    between atoms: _542  and  _545
REMARK  226  A    between atoms: _548  and  _550
REMARK  227  A    between atoms: _550  and  _551
REMARK  228  A    between atoms: _550  and  _553
REMARK  229  A    between atoms: _553  and  _554
REMARK  230  A    between atoms: _554  and  _555
REMARK  231  A    between atoms: _558  and  _560
REMARK  232  A    between atoms: _560  and  _561
REMARK  233  A    between atoms: _560  and  _563
REMARK  234  A    between atoms: _563  and  _564
REMARK  235  A    between atoms: _567  and  _569
REMARK  236  A    between atoms: _569  and  _570
REMARK  237  A    between atoms: _569  and  _572
REMARK  238  A    between atoms: _572  and  _573
REMARK  239  A    between atoms: _573  and  _574
REMARK  240  A    between atoms: _577  and  _579
REMARK  241  A    between atoms: _579  and  _580
REMARK  242  A    between atoms: _579  and  _582
REMARK  243  A    between atoms: _582  and  _583
REMARK  244  A    between atoms: _583  and  _584
REMARK  245  A    between atoms: _589  and  _591
REMARK  246  A    between atoms: _591  and  _592
REMARK  247  A    between atoms: _594  and  _596
REMARK  248  A    between atoms: _596  and  _597
REMARK  249  A    between atoms: _596  and  _599
REMARK  250  A    between atoms: _599  and  _600
REMARK  251  A    between atoms: _600  and  _601
REMARK  252  A    between atoms: _606  and  _608
REMARK  253  A    between atoms: _608  and  _609
REMARK  254  A    between atoms: _608  and  _611
REMARK  255  A    between atoms: _611  and  _612
REMARK  256  A    between atoms: _615  and  _617
REMARK  257  A    between atoms: _617  and  _618
REMARK  258  A    between atoms: _617  and  _620
REMARK  259  A    between atoms: _620  and  _621
REMARK  260  A    between atoms: _627  and  _629
REMARK  261  A    between atoms: _629  and  _630
REMARK  262  A    between atoms: _632  and  _634
REMARK  263  A    between atoms: _634  and  _635
REMARK  264  A    between atoms: _634  and  _637
REMARK  265  A    between atoms: _637  and  _638
REMARK  266  A    between atoms: _638  and  _639
REMARK  267  A    between atoms: _643  and  _644
REMARK                            x       y       z     vdW  Elec       q    Type
REMARK                         _______ _______ _______ _____ _____    ______ ____
ROOT
ATOM      1  O   HOH     1      21.363  42.046  -3.524  0.00  0.00    +0.000 OA
ENDROOT
TORSDOF 0
REMARK  Name = ../refined-set-2016/3pju/3pju_pocket.pdb
REMARK  267 active torsions:
REMARK  status: ('A' for Active; 'I' for Inactive)
REMARK    1  A    between atoms: _1  and  _3
REMARK    2  A    between atoms: _3  and  _4
REMARK    3  A    between atoms: _3  and  _6
REMARK    4  A    between atoms: _6  and  _7
REMARK    5  A    between atoms: _13  and  _15
REMARK    6  A    between atoms: _15  and  _16
REMARK    7  A    between atoms: _15  and  _18
REMARK    8  A    between atoms: _18  and  _19
REMARK    9  A    between atoms: _19  and  _20
REMARK   10  A    between atoms: _23  and  _25
REMARK   11  A    between atoms: _25  and  _26
REMARK   12  A    between atoms: _25  and  _28
REMARK   13  A    between atoms: _28  and  _29
REMARK   14  A    between atoms: _32  and  _34
REMARK   15  A    between atoms: _34  and  _35
REMARK   16  A    between atoms: _34  and  _37
REMARK   17  A    between atoms: _37  and  _38
REMARK   18  A    between atoms: _44  and  _46
REMARK   19  A    between atoms: _46  and  _47
REMARK   20  A    between atoms: _46  and  _49
REMARK   21  A    between atoms: _49  and  _50
REMARK   22  A    between atoms: _50  and  _51
REMARK   23  A    between atoms: _56  and  _58
REMARK   24  A    between atoms: _58  and  _59
REMARK   25  A    between atoms: _58  and  _61
REMARK   26  A    between atoms: _64  and  _66
REMARK   27  A    between atoms: _66  and  _67
REMARK   28  A    between atoms: _66  and  _69
REMARK   29  A    between atoms: _69  and  _70
REMARK   30  A    between atoms: _70  and  _71
REMARK   31  A    between atoms: _71  and  _72
REMARK   32  A    between atoms: _72  and  _73
REMARK   33  A    between atoms: _77  and  _79
REMARK   34  A    between atoms: _79  and  _80
REMARK   35  A    between atoms: _79  and  _82
REMARK   36  A    between atoms: _85  and  _87
REMARK   37  A    between atoms: _87  and  _88
REMARK   38  A    between atoms: _87  and  _90
REMARK   39  A    between atoms: _90  and  _91
REMARK   40  A    between atoms: _94  and  _96
REMARK   41  A    between atoms: _96  and  _97
REMARK   42  A    between atoms: _96  and  _99
REMARK   43  A    between atoms: _99  and  _100
REMARK   44  A    between atoms: _102  and  _104
REMARK   45  A    between atoms: _104  and  _105
REMARK   46  A    between atoms: _104  and  _107
REMARK   47  A    between atoms: _107  and  _108
REMARK   48  A    between atoms: _108  and  _109
REMARK   49  A    between atoms: _109  and  _110
REMARK   50  A    between atoms: _119  and  _121
REMARK   51  A    between atoms: _121  and  _122
REMARK   52  A    between atoms: _121  and  _124
REMARK   53  A    between atoms: _124  and  _125
REMARK   54  A    between atoms: _129  and  _130
REMARK   55  A    between atoms: _135  and  _137
REMARK   56  A    between atoms: _137  and  _138
REMARK   57  A    between atoms: _141  and  _143
REMARK   58  A    between atoms: _143  and  _144
REMARK   59  A    between atoms: _146  and  _148
REMARK   60  A    between atoms: _148  and  _149
REMARK   61  A    between atoms: _148  and  _151
REMARK   62  A    between atoms: _151  and  _152
REMARK   63  A    between atoms: _152  and  _153
REMARK   64  A    between atoms: _153  and  _154
REMARK   65  A    between atoms: _163  and  _165
REMARK   66  A    between atoms: _165  and  _166
REMARK   67  A    between atoms: _165  and  _168
REMARK   68  A    between atoms: _168  and  _169
REMARK   69  A    between atoms: _175  and  _177
REMARK   70  A    between atoms: _177  and  _178
REMARK   71  A    between atoms: _177  and  _180
REMARK   72  A    between atoms: _180  and  _181
REMARK   73  A    between atoms: _185  and  _186
REMARK   74  A    between atoms: _191  and  _193
REMARK   75  A    between atoms: _193  and  _194
REMARK   76  A    between atoms: _193  and  _196
REMARK   77  A    between atoms: _196  and  _197
REMARK   78  A    between atoms: _200  and  _202
REMARK   79  A    between atoms: _202  and  _203
REMARK   80  A    between atoms: _202  and  _205
REMARK   81  A    between atoms: _205  and  _206
REMARK   82  A    between atoms: _206  and  _207
REMARK   83  A    between atoms: _210  and  _212
REMARK   84  A    between atoms: _212  and  _213
REMARK   85  A    between atoms: _212  and  _215
REMARK   86  A    between atoms: _215  and  _216
REMARK   87  A    between atoms: _219  and  _221
REMARK   88  A    between atoms: _221  and  _222
REMARK   89  A    between atoms: _225  and  _227
REMARK   90  A    between atoms: _227  and  _228
REMARK   91  A    between atoms: _227  and  _230
REMARK   92  A    between atoms: _230  and  _231
REMARK   93  A    between atoms: _234  and  _236
REMARK   94  A    between atoms: _236  and  _237
REMARK   95  A    between atoms: _236  and  _239
REMARK   96  A    between atoms: _239  and  _240
REMARK   97  A    between atoms: _243  and  _245
REMARK   98  A    between atoms: _245  and  _246
REMARK   99  A    between atoms: _245  and  _248
REMARK  100  A    between atoms: _248  and  _249
REMARK  101  A    between atoms: _249  and  _250
REMARK  102  A    between atoms: _250  and  _251
REMARK  103  A    between atoms: _260  and  _262
REMARK  104  A    between atoms: _262  and  _263
REMARK  105  A    between atoms: _262  and  _265
REMARK  106  A    between atoms: _265  and  _266
REMARK  107  A    between atoms: _269  and  _271
REMARK  108  A    between atoms: _271  and  _272
REMARK  109  A    between atoms: _271  and  _274
REMARK  110  A    between atoms: _274  and  _275
REMARK  111  A    between atoms: _275  and  _276
REMARK  112  A    between atoms: _278  and  _280
REMARK  113  A    between atoms: _280  and  _281
REMARK  114  A    between atoms: _280  and  _283
REMARK  115  A    between atoms: _283  and  _284
REMARK  116  A    between atoms: _287  and  _289
REMARK  117  A    between atoms: _289  and  _290
REMARK  118  A    between atoms: _289  and  _292
REMARK  119  A    between atoms: _295  and  _297
REMARK  120  A    between atoms: _297  and  _298
REMARK  121  A    between atoms: _301  and  _303
REMARK  122  A    between atoms: _303  and  _304
REMARK  123  A    between atoms: _303  and  _306
REMARK  124  A    between atoms: _306  and  _307
REMARK  125  A    between atoms: _310  and  _312
REMARK  126  A    between atoms: _312  and  _313
REMARK  127  A    between atoms: _312  and  _315
REMARK  128  A    between atoms: _315  and  _316
REMARK  129  A    between atoms: _321  and  _323
REMARK  130  A    between atoms: _323  and  _324
REMARK  131  A    between atoms: _323  and  _326
REMARK  132  A    between atoms: _326  and  _327
REMARK  133  A    between atoms: _330  and  _332
REMARK  134  A    between atoms: _332  and  _333
REMARK  135  A    between atoms: _332  and  _335
REMARK  136  A    between atoms: _335  and  _336
REMARK  137  A    between atoms: _338  and  _340
REMARK  138  A    between atoms: _340  and  _341
REMARK  139  A    between atoms: _340  and  _343
REMARK  140  A    between atoms: _343  and  _344
REMARK  141  A    between atoms: _346  and  _348
REMARK  142  A    between atoms: _348  and  _349
REMARK  143  A    between atoms: _352  and  _354
REMARK  144  A    between atoms: _354  and  _355
REMARK  145  A    between atoms: _354  and  _357
REMARK  146  A    between atoms: _357  and  _358
REMARK  147  A    between atoms: _361  and  _363
REMARK  148  A    between atoms: _363  and  _364
REMARK  149  A    between atoms: _363  and  _366
REMARK  150  A    between atoms: _366  and  _367
REMARK  151  A    between atoms: _367  and  _368
REMARK  152  A    between atoms: _371  and  _373
REMARK  153  A    between atoms: _373  and  _374
REMARK  154  A    between atoms: _373  and  _376
REMARK  155  A    between atoms: _376  and  _377
REMARK  156  A    between atoms: _380  and  _382
REMARK  157  A    between atoms: _382  and  _383
REMARK  158  A    between atoms: _385  and  _387
REMARK  159  A    between atoms: _387  and  _388
REMARK  160  A    between atoms: _387  and  _390
REMARK  161  A    between atoms: _390  and  _391
REMARK  162  A    between atoms: _391  and  _392
REMARK  163  A    between atoms: _395  and  _397
REMARK  164  A    between atoms: _397  and  _398
REMARK  165  A    between atoms: _397  and  _400
REMARK  166  A    between atoms: _400  and  _401
REMARK  167  A    between atoms: _401  and  _402
REMARK  168  A    between atoms: _405  and  _407
REMARK  169  A    between atoms: _407  and  _408
REMARK  170  A    between atoms: _407  and  _410
REMARK  171  A    between atoms: _410  and  _411
REMARK  172  A    between atoms: _411  and  _412
REMARK  173  A    between atoms: _417  and  _419
REMARK  174  A    between atoms: _419  and  _420
REMARK  175  A    between atoms: _419  and  _422
REMARK  176  A    between atoms: _422  and  _423
REMARK  177  A    between atoms: _423  and  _424
REMARK  178  A    between atoms: _429  and  _431
REMARK  179  A    between atoms: _431  and  _432
REMARK  180  A    between atoms: _431  and  _434
REMARK  181  A    between atoms: _434  and  _435
REMARK  182  A    between atoms: _435  and  _436
REMARK  183  A    between atoms: _436  and  _437
REMARK  184  A    between atoms: _446  and  _448
REMARK  185  A    between atoms: _448  and  _449
REMARK  186  A    between atoms: _448  and  _451
REMARK  187  A    between atoms: _451  and  _452
REMARK  188  A    between atoms: _457  and  _458
REMARK  189  A    between atoms: _460  and  _462
REMARK  190  A    between atoms: _462  and  _463
REMARK  191  A    between atoms: _462  and  _465
REMARK  192  A    between atoms: _465  and  _466
REMARK  193  A    between atoms: _466  and  _467
REMARK  194  A    between atoms: _467  and  _468
REMARK  195  A    between atoms: _468  and  _469
REMARK  196  A    between atoms: _473  and  _475
REMARK  197  A    between atoms: _475  and  _476
REMARK  198  A    between atoms: _475  and  _478
REMARK  199  A    between atoms: _478  and  _479
REMARK  200  A    between atoms: _482  and  _484
REMARK  201  A    between atoms: _484  and  _485
REMARK  202  A    between atoms: _487  and  _489
REMARK  203  A    between atoms: _489  and  _490
REMARK  204  A    between atoms: _489  and  _492
REMARK  205  A    between atoms: _492  and  _493
REMARK  206  A    between atoms: _496  and  _498
REMARK  207  A    between atoms: _498  and  _499
REMARK  208  A    between atoms: _498  and  _501
REMARK  209  A    between atoms: _501  and  _502
REMARK  210  A    between atoms: _502  and  _503
REMARK  211  A    between atoms: _503  and  _504
REMARK  212  A    between atoms: _513  and  _515
REMARK  213  A    between atoms: _515  and  _516
REMARK  214  A    between atoms: _515  and  _518
REMARK  215  A    between atoms: _518  and  _519
REMARK  216  A    between atoms: _519  and  _520
REMARK  217  A    between atoms: _523  and  _525
REMARK  218  A    between atoms: _525  and  _526
REMARK  219  A    between atoms: _525  and  _528
REMARK  220  A    between atoms: _528  and  _529
REMARK  221  A    between atoms: _529  and  _530
REMARK  222  A    between atoms: _530  and  _531
REMARK  223  A    between atoms: _540  and  _542
REMARK  224  A    between atoms: _542  and  _543
REMARK  225  A    between atoms: _542  and  _545
REMARK  226  A    between atoms: _548  and  _550
REMARK  227  A    between atoms: _550  and  _551
REMARK  228  A    between atoms: _550  and  _553
REMARK  229  A    between atoms: _553  and  _554
REMARK  230  A    between atoms: _554  and  _555
REMARK  231  A    between atoms: _558  and  _560
REMARK  232  A    between atoms: _560  and  _561
REMARK  233  A    between atoms: _560  and  _563
REMARK  234  A    between atoms: _563  and  _564
REMARK  235  A    between atoms: _567  and  _569
REMARK  236  A    between atoms: _569  and  _570
REMARK  237  A    between atoms: _569  and  _572
REMARK  238  A    between atoms: _572  and  _573
REMARK  239  A    between atoms: _573  and  _574
REMARK  240  A    between atoms: _577  and  _579
REMARK  241  A    between atoms: _579  and  _580
REMARK  242  A    between atoms: _579  and  _582
REMARK  243  A    between atoms: _582  and  _583
REMARK  244  A    between atoms: _583  and  _584
REMARK  245  A    between atoms: _589  and  _591
REMARK  246  A    between atoms: _591  and  _592
REMARK  247  A    between atoms: _594  and  _596
REMARK  248  A    between atoms: _596  and  _597
REMARK  249  A    between atoms: _596  and  _599
REMARK  250  A    between atoms: _599  and  _600
REMARK  251  A    between atoms: _600  and  _601
REMARK  252  A    between atoms: _606  and  _608
REMARK  253  A    between atoms: _608  and  _609
REMARK  254  A    between atoms: _608  and  _611
REMARK  255  A    between atoms: _611  and  _612
REMARK  256  A    between atoms: _615  and  _617
REMARK  257  A    between atoms: _617  and  _618
REMARK  258  A    between atoms: _617  and  _620
REMARK  259  A    between atoms: _620  and  _621
REMARK  260  A    between atoms: _627  and  _629
REMARK  261  A    between atoms: _629  and  _630
REMARK  262  A    between atoms: _632  and  _634
REMARK  263  A    between atoms: _634  and  _635
REMARK  264  A    between atoms: _634  and  _637
REMARK  265  A    between atoms: _637  and  _638
REMARK  266  A    between atoms: _638  and  _639
REMARK  267  A    between atoms: _643  and  _644
REMARK                            x       y       z     vdW  Elec       q    Type
REMARK                         _______ _______ _______ _____ _____    ______ ____
ROOT
ATOM      1  O   HOH     1      25.772  41.185   2.199  0.00  0.00    +0.000 OA
ENDROOT
TORSDOF 0
REMARK  Name = ../refined-set-2016/3pju/3pju_pocket.pdb
REMARK  267 active torsions:
REMARK  status: ('A' for Active; 'I' for Inactive)
REMARK    1  A    between atoms: _1  and  _3
REMARK    2  A    between atoms: _3  and  _4
REMARK    3  A    between atoms: _3  and  _6
REMARK    4  A    between atoms: _6  and  _7
REMARK    5  A    between atoms: _13  and  _15
REMARK    6  A    between atoms: _15  and  _16
REMARK    7  A    between atoms: _15  and  _18
REMARK    8  A    between atoms: _18  and  _19
REMARK    9  A    between atoms: _19  and  _20
REMARK   10  A    between atoms: _23  and  _25
REMARK   11  A    between atoms: _25  and  _26
REMARK   12  A    between atoms: _25  and  _28
REMARK   13  A    between atoms: _28  and  _29
REMARK   14  A    between atoms: _32  and  _34
REMARK   15  A    between atoms: _34  and  _35
REMARK   16  A    between atoms: _34  and  _37
REMARK   17  A    between atoms: _37  and  _38
REMARK   18  A    between atoms: _44  and  _46
REMARK   19  A    between atoms: _46  and  _47
REMARK   20  A    between atoms: _46  and  _49
REMARK   21  A    between atoms: _49  and  _50
REMARK   22  A    between atoms: _50  and  _51
REMARK   23  A    between atoms: _56  and  _58
REMARK   24  A    between atoms: _58  and  _59
REMARK   25  A    between atoms: _58  and  _61
REMARK   26  A    between atoms: _64  and  _66
REMARK   27  A    between atoms: _66  and  _67
REMARK   28  A    between atoms: _66  and  _69
REMARK   29  A    between atoms: _69  and  _70
REMARK   30  A    between atoms: _70  and  _71
REMARK   31  A    between atoms: _71  and  _72
REMARK   32  A    between atoms: _72  and  _73
REMARK   33  A    between atoms: _77  and  _79
REMARK   34  A    between atoms: _79  and  _80
REMARK   35  A    between atoms: _79  and  _82
REMARK   36  A    between atoms: _85  and  _87
REMARK   37  A    between atoms: _87  and  _88
REMARK   38  A    between atoms: _87  and  _90
REMARK   39  A    between atoms: _90  and  _91
REMARK   40  A    between atoms: _94  and  _96
REMARK   41  A    between atoms: _96  and  _97
REMARK   42  A    between atoms: _96  and  _99
REMARK   43  A    between atoms: _99  and  _100
REMARK   44  A    between atoms: _102  and  _104
REMARK   45  A    between atoms: _104  and  _105
REMARK   46  A    between atoms: _104  and  _107
REMARK   47  A    between atoms: _107  and  _108
REMARK   48  A    between atoms: _108  and  _109
REMARK   49  A    between atoms: _109  and  _110
REMARK   50  A    between atoms: _119  and  _121
REMARK   51  A    between atoms: _121  and  _122
REMARK   52  A    between atoms: _121  and  _124
REMARK   53  A    between atoms: _124  and  _125
REMARK   54  A    between atoms: _129  and  _130
REMARK   55  A    between atoms: _135  and  _137
REMARK   56  A    between atoms: _137  and  _138
REMARK   57  A    between atoms: _141  and  _143
REMARK   58  A    between atoms: _143  and  _144
REMARK   59  A    between atoms: _146  and  _148
REMARK   60  A    between atoms: _148  and  _149
REMARK   61  A    between atoms: _148  and  _151
REMARK   62  A    between atoms: _151  and  _152
REMARK   63  A    between atoms: _152  and  _153
REMARK   64  A    between atoms: _153  and  _154
REMARK   65  A    between atoms: _163  and  _165
REMARK   66  A    between atoms: _165  and  _166
REMARK   67  A    between atoms: _165  and  _168
REMARK   68  A    between atoms: _168  and  _169
REMARK   69  A    between atoms: _175  and  _177
REMARK   70  A    between atoms: _177  and  _178
REMARK   71  A    between atoms: _177  and  _180
REMARK   72  A    between atoms: _180  and  _181
REMARK   73  A    between atoms: _185  and  _186
REMARK   74  A    between atoms: _191  and  _193
REMARK   75  A    between atoms: _193  and  _194
REMARK   76  A    between atoms: _193  and  _196
REMARK   77  A    between atoms: _196  and  _197
REMARK   78  A    between atoms: _200  and  _202
REMARK   79  A    between atoms: _202  and  _203
REMARK   80  A    between atoms: _202  and  _205
REMARK   81  A    between atoms: _205  and  _206
REMARK   82  A    between atoms: _206  and  _207
REMARK   83  A    between atoms: _210  and  _212
REMARK   84  A    between atoms: _212  and  _213
REMARK   85  A    between atoms: _212  and  _215
REMARK   86  A    between atoms: _215  and  _216
REMARK   87  A    between atoms: _219  and  _221
REMARK   88  A    between atoms: _221  and  _222
REMARK   89  A    between atoms: _225  and  _227
REMARK   90  A    between atoms: _227  and  _228
REMARK   91  A    between atoms: _227  and  _230
REMARK   92  A    between atoms: _230  and  _231
REMARK   93  A    between atoms: _234  and  _236
REMARK   94  A    between atoms: _236  and  _237
REMARK   95  A    between atoms: _236  and  _239
REMARK   96  A    between atoms: _239  and  _240
REMARK   97  A    between atoms: _243  and  _245
REMARK   98  A    between atoms: _245  and  _246
REMARK   99  A    between atoms: _245  and  _248
REMARK  100  A    between atoms: _248  and  _249
REMARK  101  A    between atoms: _249  and  _250
REMARK  102  A    between atoms: _250  and  _251
REMARK  103  A    between atoms: _260  and  _262
REMARK  104  A    between atoms: _262  and  _263
REMARK  105  A    between atoms: _262  and  _265
REMARK  106  A    between atoms: _265  and  _266
REMARK  107  A    between atoms: _269  and  _271
REMARK  108  A    between atoms: _271  and  _272
REMARK  109  A    between atoms: _271  and  _274
REMARK  110  A    between atoms: _274  and  _275
REMARK  111  A    between atoms: _275  and  _276
REMARK  112  A    between atoms: _278  and  _280
REMARK  113  A    between atoms: _280  and  _281
REMARK  114  A    between atoms: _280  and  _283
REMARK  115  A    between atoms: _283  and  _284
REMARK  116  A    between atoms: _287  and  _289
REMARK  117  A    between atoms: _289  and  _290
REMARK  118  A    between atoms: _289  and  _292
REMARK  119  A    between atoms: _295  and  _297
REMARK  120  A    between atoms: _297  and  _298
REMARK  121  A    between atoms: _301  and  _303
REMARK  122  A    between atoms: _303  and  _304
REMARK  123  A    between atoms: _303  and  _306
REMARK  124  A    between atoms: _306  and  _307
REMARK  125  A    between atoms: _310  and  _312
REMARK  126  A    between atoms: _312  and  _313
REMARK  127  A    between atoms: _312  and  _315
REMARK  128  A    between atoms: _315  and  _316
REMARK  129  A    between atoms: _321  and  _323
REMARK  130  A    between atoms: _323  and  _324
REMARK  131  A    between atoms: _323  and  _326
REMARK  132  A    between atoms: _326  and  _327
REMARK  133  A    between atoms: _330  and  _332
REMARK  134  A    between atoms: _332  and  _333
REMARK  135  A    between atoms: _332  and  _335
REMARK  136  A    between atoms: _335  and  _336
REMARK  137  A    between atoms: _338  and  _340
REMARK  138  A    between atoms: _340  and  _341
REMARK  139  A    between atoms: _340  and  _343
REMARK  140  A    between atoms: _343  and  _344
REMARK  141  A    between atoms: _346  and  _348
REMARK  142  A    between atoms: _348  and  _349
REMARK  143  A    between atoms: _352  and  _354
REMARK  144  A    between atoms: _354  and  _355
REMARK  145  A    between atoms: _354  and  _357
REMARK  146  A    between atoms: _357  and  _358
REMARK  147  A    between atoms: _361  and  _363
REMARK  148  A    between atoms: _363  and  _364
REMARK  149  A    between atoms: _363  and  _366
REMARK  150  A    between atoms: _366  and  _367
REMARK  151  A    between atoms: _367  and  _368
REMARK  152  A    between atoms: _371  and  _373
REMARK  153  A    between atoms: _373  and  _374
REMARK  154  A    between atoms: _373  and  _376
REMARK  155  A    between atoms: _376  and  _377
REMARK  156  A    between atoms: _380  and  _382
REMARK  157  A    between atoms: _382  and  _383
REMARK  158  A    between atoms: _385  and  _387
REMARK  159  A    between atoms: _387  and  _388
REMARK  160  A    between atoms: _387  and  _390
REMARK  161  A    between atoms: _390  and  _391
REMARK  162  A    between atoms: _391  and  _392
REMARK  163  A    between atoms: _395  and  _397
REMARK  164  A    between atoms: _397  and  _398
REMARK  165  A    between atoms: _397  and  _400
REMARK  166  A    between atoms: _400  and  _401
REMARK  167  A    between atoms: _401  and  _402
REMARK  168  A    between atoms: _405  and  _407
REMARK  169  A    between atoms: _407  and  _408
REMARK  170  A    between atoms: _407  and  _410
REMARK  171  A    between atoms: _410  and  _411
REMARK  172  A    between atoms: _411  and  _412
REMARK  173  A    between atoms: _417  and  _419
REMARK  174  A    between atoms: _419  and  _420
REMARK  175  A    between atoms: _419  and  _422
REMARK  176  A    between atoms: _422  and  _423
REMARK  177  A    between atoms: _423  and  _424
REMARK  178  A    between atoms: _429  and  _431
REMARK  179  A    between atoms: _431  and  _432
REMARK  180  A    between atoms: _431  and  _434
REMARK  181  A    between atoms: _434  and  _435
REMARK  182  A    between atoms: _435  and  _436
REMARK  183  A    between atoms: _436  and  _437
REMARK  184  A    between atoms: _446  and  _448
REMARK  185  A    between atoms: _448  and  _449
REMARK  186  A    between atoms: _448  and  _451
REMARK  187  A    between atoms: _451  and  _452
REMARK  188  A    between atoms: _457  and  _458
REMARK  189  A    between atoms: _460  and  _462
REMARK  190  A    between atoms: _462  and  _463
REMARK  191  A    between atoms: _462  and  _465
REMARK  192  A    between atoms: _465  and  _466
REMARK  193  A    between atoms: _466  and  _467
REMARK  194  A    between atoms: _467  and  _468
REMARK  195  A    between atoms: _468  and  _469
REMARK  196  A    between atoms: _473  and  _475
REMARK  197  A    between atoms: _475  and  _476
REMARK  198  A    between atoms: _475  and  _478
REMARK  199  A    between atoms: _478  and  _479
REMARK  200  A    between atoms: _482  and  _484
REMARK  201  A    between atoms: _484  and  _485
REMARK  202  A    between atoms: _487  and  _489
REMARK  203  A    between atoms: _489  and  _490
REMARK  204  A    between atoms: _489  and  _492
REMARK  205  A    between atoms: _492  and  _493
REMARK  206  A    between atoms: _496  and  _498
REMARK  207  A    between atoms: _498  and  _499
REMARK  208  A    between atoms: _498  and  _501
REMARK  209  A    between atoms: _501  and  _502
REMARK  210  A    between atoms: _502  and  _503
REMARK  211  A    between atoms: _503  and  _504
REMARK  212  A    between atoms: _513  and  _515
REMARK  213  A    between atoms: _515  and  _516
REMARK  214  A    between atoms: _515  and  _518
REMARK  215  A    between atoms: _518  and  _519
REMARK  216  A    between atoms: _519  and  _520
REMARK  217  A    between atoms: _523  and  _525
REMARK  218  A    between atoms: _525  and  _526
REMARK  219  A    between atoms: _525  and  _528
REMARK  220  A    between atoms: _528  and  _529
REMARK  221  A    between atoms: _529  and  _530
REMARK  222  A    between atoms: _530  and  _531
REMARK  223  A    between atoms: _540  and  _542
REMARK  224  A    between atoms: _542  and  _543
REMARK  225  A    between atoms: _542  and  _545
REMARK  226  A    between atoms: _548  and  _550
REMARK  227  A    between atoms: _550  and  _551
REMARK  228  A    between atoms: _550  and  _553
REMARK  229  A    between atoms: _553  and  _554
REMARK  230  A    between atoms: _554  and  _555
REMARK  231  A    between atoms: _558  and  _560
REMARK  232  A    between atoms: _560  and  _561
REMARK  233  A    between atoms: _560  and  _563
REMARK  234  A    between atoms: _563  and  _564
REMARK  235  A    between atoms: _567  and  _569
REMARK  236  A    between atoms: _569  and  _570
REMARK  237  A    between atoms: _569  and  _572
REMARK  238  A    between atoms: _572  and  _573
REMARK  239  A    between atoms: _573  and  _574
REMARK  240  A    between atoms: _577  and  _579
REMARK  241  A    between atoms: _579  and  _580
REMARK  242  A    between atoms: _579  and  _582
REMARK  243  A    between atoms: _582  and  _583
REMARK  244  A    between atoms: _583  and  _584
REMARK  245  A    between atoms: _589  and  _591
REMARK  246  A    between atoms: _591  and  _592
REMARK  247  A    between atoms: _594  and  _596
REMARK  248  A    between atoms: _596  and  _597
REMARK  249  A    between atoms: _596  and  _599
REMARK  250  A    between atoms: _599  and  _600
REMARK  251  A    between atoms: _600  and  _601
REMARK  252  A    between atoms: _606  and  _608
REMARK  253  A    between atoms: _608  and  _609
REMARK  254  A    between atoms: _608  and  _611
REMARK  255  A    between atoms: _611  and  _612
REMARK  256  A    between atoms: _615  and  _617
REMARK  257  A    between atoms: _617  and  _618
REMARK  258  A    between atoms: _617  and  _620
REMARK  259  A    between atoms: _620  and  _621
REMARK  260  A    between atoms: _627  and  _629
REMARK  261  A    between atoms: _629  and  _630
REMARK  262  A    between atoms: _632  and  _634
REMARK  263  A    between atoms: _634  and  _635
REMARK  264  A    between atoms: _634  and  _637
REMARK  265  A    between atoms: _637  and  _638
REMARK  266  A    between atoms: _638  and  _639
REMARK  267  A    between atoms: _643  and  _644
REMARK                            x       y       z     vdW  Elec       q    Type
REMARK                         _______ _______ _______ _____ _____    ______ ____
ROOT
ATOM      1  O   HOH     1      36.036  30.763   7.709  0.00  0.00    +0.000 OA
ENDROOT
TORSDOF 0
REMARK  Name = ../refined-set-2016/3pju/3pju_pocket.pdb
REMARK  267 active torsions:
REMARK  status: ('A' for Active; 'I' for Inactive)
REMARK    1  A    between atoms: _1  and  _3
REMARK    2  A    between atoms: _3  and  _4
REMARK    3  A    between atoms: _3  and  _6
REMARK    4  A    between atoms: _6  and  _7
REMARK    5  A    between atoms: _13  and  _15
REMARK    6  A    between atoms: _15  and  _16
REMARK    7  A    between atoms: _15  and  _18
REMARK    8  A    between atoms: _18  and  _19
REMARK    9  A    between atoms: _19  and  _20
REMARK   10  A    between atoms: _23  and  _25
REMARK   11  A    between atoms: _25  and  _26
REMARK   12  A    between atoms: _25  and  _28
REMARK   13  A    between atoms: _28  and  _29
REMARK   14  A    between atoms: _32  and  _34
REMARK   15  A    between atoms: _34  and  _35
REMARK   16  A    between atoms: _34  and  _37
REMARK   17  A    between atoms: _37  and  _38
REMARK   18  A    between atoms: _44  and  _46
REMARK   19  A    between atoms: _46  and  _47
REMARK   20  A    between atoms: _46  and  _49
REMARK   21  A    between atoms: _49  and  _50
REMARK   22  A    between atoms: _50  and  _51
REMARK   23  A    between atoms: _56  and  _58
REMARK   24  A    between atoms: _58  and  _59
REMARK   25  A    between atoms: _58  and  _61
REMARK   26  A    between atoms: _64  and  _66
REMARK   27  A    between atoms: _66  and  _67
REMARK   28  A    between atoms: _66  and  _69
REMARK   29  A    between atoms: _69  and  _70
REMARK   30  A    between atoms: _70  and  _71
REMARK   31  A    between atoms: _71  and  _72
REMARK   32  A    between atoms: _72  and  _73
REMARK   33  A    between atoms: _77  and  _79
REMARK   34  A    between atoms: _79  and  _80
REMARK   35  A    between atoms: _79  and  _82
REMARK   36  A    between atoms: _85  and  _87
REMARK   37  A    between atoms: _87  and  _88
REMARK   38  A    between atoms: _87  and  _90
REMARK   39  A    between atoms: _90  and  _91
REMARK   40  A    between atoms: _94  and  _96
REMARK   41  A    between atoms: _96  and  _97
REMARK   42  A    between atoms: _96  and  _99
REMARK   43  A    between atoms: _99  and  _100
REMARK   44  A    between atoms: _102  and  _104
REMARK   45  A    between atoms: _104  and  _105
REMARK   46  A    between atoms: _104  and  _107
REMARK   47  A    between atoms: _107  and  _108
REMARK   48  A    between atoms: _108  and  _109
REMARK   49  A    between atoms: _109  and  _110
REMARK   50  A    between atoms: _119  and  _121
REMARK   51  A    between atoms: _121  and  _122
REMARK   52  A    between atoms: _121  and  _124
REMARK   53  A    between atoms: _124  and  _125
REMARK   54  A    between atoms: _129  and  _130
REMARK   55  A    between atoms: _135  and  _137
REMARK   56  A    between atoms: _137  and  _138
REMARK   57  A    between atoms: _141  and  _143
REMARK   58  A    between atoms: _143  and  _144
REMARK   59  A    between atoms: _146  and  _148
REMARK   60  A    between atoms: _148  and  _149
REMARK   61  A    between atoms: _148  and  _151
REMARK   62  A    between atoms: _151  and  _152
REMARK   63  A    between atoms: _152  and  _153
REMARK   64  A    between atoms: _153  and  _154
REMARK   65  A    between atoms: _163  and  _165
REMARK   66  A    between atoms: _165  and  _166
REMARK   67  A    between atoms: _165  and  _168
REMARK   68  A    between atoms: _168  and  _169
REMARK   69  A    between atoms: _175  and  _177
REMARK   70  A    between atoms: _177  and  _178
REMARK   71  A    between atoms: _177  and  _180
REMARK   72  A    between atoms: _180  and  _181
REMARK   73  A    between atoms: _185  and  _186
REMARK   74  A    between atoms: _191  and  _193
REMARK   75  A    between atoms: _193  and  _194
REMARK   76  A    between atoms: _193  and  _196
REMARK   77  A    between atoms: _196  and  _197
REMARK   78  A    between atoms: _200  and  _202
REMARK   79  A    between atoms: _202  and  _203
REMARK   80  A    between atoms: _202  and  _205
REMARK   81  A    between atoms: _205  and  _206
REMARK   82  A    between atoms: _206  and  _207
REMARK   83  A    between atoms: _210  and  _212
REMARK   84  A    between atoms: _212  and  _213
REMARK   85  A    between atoms: _212  and  _215
REMARK   86  A    between atoms: _215  and  _216
REMARK   87  A    between atoms: _219  and  _221
REMARK   88  A    between atoms: _221  and  _222
REMARK   89  A    between atoms: _225  and  _227
REMARK   90  A    between atoms: _227  and  _228
REMARK   91  A    between atoms: _227  and  _230
REMARK   92  A    between atoms: _230  and  _231
REMARK   93  A    between atoms: _234  and  _236
REMARK   94  A    between atoms: _236  and  _237
REMARK   95  A    between atoms: _236  and  _239
REMARK   96  A    between atoms: _239  and  _240
REMARK   97  A    between atoms: _243  and  _245
REMARK   98  A    between atoms: _245  and  _246
REMARK   99  A    between atoms: _245  and  _248
REMARK  100  A    between atoms: _248  and  _249
REMARK  101  A    between atoms: _249  and  _250
REMARK  102  A    between atoms: _250  and  _251
REMARK  103  A    between atoms: _260  and  _262
REMARK  104  A    between atoms: _262  and  _263
REMARK  105  A    between atoms: _262  and  _265
REMARK  106  A    between atoms: _265  and  _266
REMARK  107  A    between atoms: _269  and  _271
REMARK  108  A    between atoms: _271  and  _272
REMARK  109  A    between atoms: _271  and  _274
REMARK  110  A    between atoms: _274  and  _275
REMARK  111  A    between atoms: _275  and  _276
REMARK  112  A    between atoms: _278  and  _280
REMARK  113  A    between atoms: _280  and  _281
REMARK  114  A    between atoms: _280  and  _283
REMARK  115  A    between atoms: _283  and  _284
REMARK  116  A    between atoms: _287  and  _289
REMARK  117  A    between atoms: _289  and  _290
REMARK  118  A    between atoms: _289  and  _292
REMARK  119  A    between atoms: _295  and  _297
REMARK  120  A    between atoms: _297  and  _298
REMARK  121  A    between atoms: _301  and  _303
REMARK  122  A    between atoms: _303  and  _304
REMARK  123  A    between atoms: _303  and  _306
REMARK  124  A    between atoms: _306  and  _307
REMARK  125  A    between atoms: _310  and  _312
REMARK  126  A    between atoms: _312  and  _313
REMARK  127  A    between atoms: _312  and  _315
REMARK  128  A    between atoms: _315  and  _316
REMARK  129  A    between atoms: _321  and  _323
REMARK  130  A    between atoms: _323  and  _324
REMARK  131  A    between atoms: _323  and  _326
REMARK  132  A    between atoms: _326  and  _327
REMARK  133  A    between atoms: _330  and  _332
REMARK  134  A    between atoms: _332  and  _333
REMARK  135  A    between atoms: _332  and  _335
REMARK  136  A    between atoms: _335  and  _336
REMARK  137  A    between atoms: _338  and  _340
REMARK  138  A    between atoms: _340  and  _341
REMARK  139  A    between atoms: _340  and  _343
REMARK  140  A    between atoms: _343  and  _344
REMARK  141  A    between atoms: _346  and  _348
REMARK  142  A    between atoms: _348  and  _349
REMARK  143  A    between atoms: _352  and  _354
REMARK  144  A    between atoms: _354  and  _355
REMARK  145  A    between atoms: _354  and  _357
REMARK  146  A    between atoms: _357  and  _358
REMARK  147  A    between atoms: _361  and  _363
REMARK  148  A    between atoms: _363  and  _364
REMARK  149  A    between atoms: _363  and  _366
REMARK  150  A    between atoms: _366  and  _367
REMARK  151  A    between atoms: _367  and  _368
REMARK  152  A    between atoms: _371  and  _373
REMARK  153  A    between atoms: _373  and  _374
REMARK  154  A    between atoms: _373  and  _376
REMARK  155  A    between atoms: _376  and  _377
REMARK  156  A    between atoms: _380  and  _382
REMARK  157  A    between atoms: _382  and  _383
REMARK  158  A    between atoms: _385  and  _387
REMARK  159  A    between atoms: _387  and  _388
REMARK  160  A    between atoms: _387  and  _390
REMARK  161  A    between atoms: _390  and  _391
REMARK  162  A    between atoms: _391  and  _392
REMARK  163  A    between atoms: _395  and  _397
REMARK  164  A    between atoms: _397  and  _398
REMARK  165  A    between atoms: _397  and  _400
REMARK  166  A    between atoms: _400  and  _401
REMARK  167  A    between atoms: _401  and  _402
REMARK  168  A    between atoms: _405  and  _407
REMARK  169  A    between atoms: _407  and  _408
REMARK  170  A    between atoms: _407  and  _410
REMARK  171  A    between atoms: _410  and  _411
REMARK  172  A    between atoms: _411  and  _412
REMARK  173  A    between atoms: _417  and  _419
REMARK  174  A    between atoms: _419  and  _420
REMARK  175  A    between atoms: _419  and  _422
REMARK  176  A    between atoms: _422  and  _423
REMARK  177  A    between atoms: _423  and  _424
REMARK  178  A    between atoms: _429  and  _431
REMARK  179  A    between atoms: _431  and  _432
REMARK  180  A    between atoms: _431  and  _434
REMARK  181  A    between atoms: _434  and  _435
REMARK  182  A    between atoms: _435  and  _436
REMARK  183  A    between atoms: _436  and  _437
REMARK  184  A    between atoms: _446  and  _448
REMARK  185  A    between atoms: _448  and  _449
REMARK  186  A    between atoms: _448  and  _451
REMARK  187  A    between atoms: _451  and  _452
REMARK  188  A    between atoms: _457  and  _458
REMARK  189  A    between atoms: _460  and  _462
REMARK  190  A    between atoms: _462  and  _463
REMARK  191  A    between atoms: _462  and  _465
REMARK  192  A    between atoms: _465  and  _466
REMARK  193  A    between atoms: _466  and  _467
REMARK  194  A    between atoms: _467  and  _468
REMARK  195  A    between atoms: _468  and  _469
REMARK  196  A    between atoms: _473  and  _475
REMARK  197  A    between atoms: _475  and  _476
REMARK  198  A    between atoms: _475  and  _478
REMARK  199  A    between atoms: _478  and  _479
REMARK  200  A    between atoms: _482  and  _484
REMARK  201  A    between atoms: _484  and  _485
REMARK  202  A    between atoms: _487  and  _489
REMARK  203  A    between atoms: _489  and  _490
REMARK  204  A    between atoms: _489  and  _492
REMARK  205  A    between atoms: _492  and  _493
REMARK  206  A    between atoms: _496  and  _498
REMARK  207  A    between atoms: _498  and  _499
REMARK  208  A    between atoms: _498  and  _501
REMARK  209  A    between atoms: _501  and  _502
REMARK  210  A    between atoms: _502  and  _503
REMARK  211  A    between atoms: _503  and  _504
REMARK  212  A    between atoms: _513  and  _515
REMARK  213  A    between atoms: _515  and  _516
REMARK  214  A    between atoms: _515  and  _518
REMARK  215  A    between atoms: _518  and  _519
REMARK  216  A    between atoms: _519  and  _520
REMARK  217  A    between atoms: _523  and  _525
REMARK  218  A    between atoms: _525  and  _526
REMARK  219  A    between atoms: _525  and  _528
REMARK  220  A    between atoms: _528  and  _529
REMARK  221  A    between atoms: _529  and  _530
REMARK  222  A    between atoms: _530  and  _531
REMARK  223  A    between atoms: _540  and  _542
REMARK  224  A    between atoms: _542  and  _543
REMARK  225  A    between atoms: _542  and  _545
REMARK  226  A    between atoms: _548  and  _550
REMARK  227  A    between atoms: _550  and  _551
REMARK  228  A    between atoms: _550  and  _553
REMARK  229  A    between atoms: _553  and  _554
REMARK  230  A    between atoms: _554  and  _555
REMARK  231  A    between atoms: _558  and  _560
REMARK  232  A    between atoms: _560  and  _561
REMARK  233  A    between atoms: _560  and  _563
REMARK  234  A    between atoms: _563  and  _564
REMARK  235  A    between atoms: _567  and  _569
REMARK  236  A    between atoms: _569  and  _570
REMARK  237  A    between atoms: _569  and  _572
REMARK  238  A    between atoms: _572  and  _573
REMARK  239  A    between atoms: _573  and  _574
REMARK  240  A    between atoms: _577  and  _579
REMARK  241  A    between atoms: _579  and  _580
REMARK  242  A    between atoms: _579  and  _582
REMARK  243  A    between atoms: _582  and  _583
REMARK  244  A    between atoms: _583  and  _584
REMARK  245  A    between atoms: _589  and  _591
REMARK  246  A    between atoms: _591  and  _592
REMARK  247  A    between atoms: _594  and  _596
REMARK  248  A    between atoms: _596  and  _597
REMARK  249  A    between atoms: _596  and  _599
REMARK  250  A    between atoms: _599  and  _600
REMARK  251  A    between atoms: _600  and  _601
REMARK  252  A    between atoms: _606  and  _608
REMARK  253  A    between atoms: _608  and  _609
REMARK  254  A    between atoms: _608  and  _611
REMARK  255  A    between atoms: _611  and  _612
REMARK  256  A    between atoms: _615  and  _617
REMARK  257  A    between atoms: _617  and  _618
REMARK  258  A    between atoms: _617  and  _620
REMARK  259  A    between atoms: _620  and  _621
REMARK  260  A    between atoms: _627  and  _629
REMARK  261  A    between atoms: _629  and  _630
REMARK  262  A    between atoms: _632  and  _634
REMARK  263  A    between atoms: _634  and  _635
REMARK  264  A    between atoms: _634  and  _637
REMARK  265  A    between atoms: _637  and  _638
REMARK  266  A    between atoms: _638  and  _639
REMARK  267  A    between atoms: _643  and  _644
REMARK                            x       y       z     vdW  Elec       q    Type
REMARK                         _______ _______ _______ _____ _____    ______ ____
ROOT
ATOM      1  O   HOH     1      32.505  40.136   2.071  0.00  0.00    +0.000 OA
ENDROOT
TORSDOF 0
REMARK  Name = ../refined-set-2016/3pju/3pju_pocket.pdb
REMARK  267 active torsions:
REMARK  status: ('A' for Active; 'I' for Inactive)
REMARK    1  A    between atoms: _1  and  _3
REMARK    2  A    between atoms: _3  and  _4
REMARK    3  A    between atoms: _3  and  _6
REMARK    4  A    between atoms: _6  and  _7
REMARK    5  A    between atoms: _13  and  _15
REMARK    6  A    between atoms: _15  and  _16
REMARK    7  A    between atoms: _15  and  _18
REMARK    8  A    between atoms: _18  and  _19
REMARK    9  A    between atoms: _19  and  _20
REMARK   10  A    between atoms: _23  and  _25
REMARK   11  A    between atoms: _25  and  _26
REMARK   12  A    between atoms: _25  and  _28
REMARK   13  A    between atoms: _28  and  _29
REMARK   14  A    between atoms: _32  and  _34
REMARK   15  A    between atoms: _34  and  _35
REMARK   16  A    between atoms: _34  and  _37
REMARK   17  A    between atoms: _37  and  _38
REMARK   18  A    between atoms: _44  and  _46
REMARK   19  A    between atoms: _46  and  _47
REMARK   20  A    between atoms: _46  and  _49
REMARK   21  A    between atoms: _49  and  _50
REMARK   22  A    between atoms: _50  and  _51
REMARK   23  A    between atoms: _56  and  _58
REMARK   24  A    between atoms: _58  and  _59
REMARK   25  A    between atoms: _58  and  _61
REMARK   26  A    between atoms: _64  and  _66
REMARK   27  A    between atoms: _66  and  _67
REMARK   28  A    between atoms: _66  and  _69
REMARK   29  A    between atoms: _69  and  _70
REMARK   30  A    between atoms: _70  and  _71
REMARK   31  A    between atoms: _71  and  _72
REMARK   32  A    between atoms: _72  and  _73
REMARK   33  A    between atoms: _77  and  _79
REMARK   34  A    between atoms: _79  and  _80
REMARK   35  A    between atoms: _79  and  _82
REMARK   36  A    between atoms: _85  and  _87
REMARK   37  A    between atoms: _87  and  _88
REMARK   38  A    between atoms: _87  and  _90
REMARK   39  A    between atoms: _90  and  _91
REMARK   40  A    between atoms: _94  and  _96
REMARK   41  A    between atoms: _96  and  _97
REMARK   42  A    between atoms: _96  and  _99
REMARK   43  A    between atoms: _99  and  _100
REMARK   44  A    between atoms: _102  and  _104
REMARK   45  A    between atoms: _104  and  _105
REMARK   46  A    between atoms: _104  and  _107
REMARK   47  A    between atoms: _107  and  _108
REMARK   48  A    between atoms: _108  and  _109
REMARK   49  A    between atoms: _109  and  _110
REMARK   50  A    between atoms: _119  and  _121
REMARK   51  A    between atoms: _121  and  _122
REMARK   52  A    between atoms: _121  and  _124
REMARK   53  A    between atoms: _124  and  _125
REMARK   54  A    between atoms: _129  and  _130
REMARK   55  A    between atoms: _135  and  _137
REMARK   56  A    between atoms: _137  and  _138
REMARK   57  A    between atoms: _141  and  _143
REMARK   58  A    between atoms: _143  and  _144
REMARK   59  A    between atoms: _146  and  _148
REMARK   60  A    between atoms: _148  and  _149
REMARK   61  A    between atoms: _148  and  _151
REMARK   62  A    between atoms: _151  and  _152
REMARK   63  A    between atoms: _152  and  _153
REMARK   64  A    between atoms: _153  and  _154
REMARK   65  A    between atoms: _163  and  _165
REMARK   66  A    between atoms: _165  and  _166
REMARK   67  A    between atoms: _165  and  _168
REMARK   68  A    between atoms: _168  and  _169
REMARK   69  A    between atoms: _175  and  _177
REMARK   70  A    between atoms: _177  and  _178
REMARK   71  A    between atoms: _177  and  _180
REMARK   72  A    between atoms: _180  and  _181
REMARK   73  A    between atoms: _185  and  _186
REMARK   74  A    between atoms: _191  and  _193
REMARK   75  A    between atoms: _193  and  _194
REMARK   76  A    between atoms: _193  and  _196
REMARK   77  A    between atoms: _196  and  _197
REMARK   78  A    between atoms: _200  and  _202
REMARK   79  A    between atoms: _202  and  _203
REMARK   80  A    between atoms: _202  and  _205
REMARK   81  A    between atoms: _205  and  _206
REMARK   82  A    between atoms: _206  and  _207
REMARK   83  A    between atoms: _210  and  _212
REMARK   84  A    between atoms: _212  and  _213
REMARK   85  A    between atoms: _212  and  _215
REMARK   86  A    between atoms: _215  and  _216
REMARK   87  A    between atoms: _219  and  _221
REMARK   88  A    between atoms: _221  and  _222
REMARK   89  A    between atoms: _225  and  _227
REMARK   90  A    between atoms: _227  and  _228
REMARK   91  A    between atoms: _227  and  _230
REMARK   92  A    between atoms: _230  and  _231
REMARK   93  A    between atoms: _234  and  _236
REMARK   94  A    between atoms: _236  and  _237
REMARK   95  A    between atoms: _236  and  _239
REMARK   96  A    between atoms: _239  and  _240
REMARK   97  A    between atoms: _243  and  _245
REMARK   98  A    between atoms: _245  and  _246
REMARK   99  A    between atoms: _245  and  _248
REMARK  100  A    between atoms: _248  and  _249
REMARK  101  A    between atoms: _249  and  _250
REMARK  102  A    between atoms: _250  and  _251
REMARK  103  A    between atoms: _260  and  _262
REMARK  104  A    between atoms: _262  and  _263
REMARK  105  A    between atoms: _262  and  _265
REMARK  106  A    between atoms: _265  and  _266
REMARK  107  A    between atoms: _269  and  _271
REMARK  108  A    between atoms: _271  and  _272
REMARK  109  A    between atoms: _271  and  _274
REMARK  110  A    between atoms: _274  and  _275
REMARK  111  A    between atoms: _275  and  _276
REMARK  112  A    between atoms: _278  and  _280
REMARK  113  A    between atoms: _280  and  _281
REMARK  114  A    between atoms: _280  and  _283
REMARK  115  A    between atoms: _283  and  _284
REMARK  116  A    between atoms: _287  and  _289
REMARK  117  A    between atoms: _289  and  _290
REMARK  118  A    between atoms: _289  and  _292
REMARK  119  A    between atoms: _295  and  _297
REMARK  120  A    between atoms: _297  and  _298
REMARK  121  A    between atoms: _301  and  _303
REMARK  122  A    between atoms: _303  and  _304
REMARK  123  A    between atoms: _303  and  _306
REMARK  124  A    between atoms: _306  and  _307
REMARK  125  A    between atoms: _310  and  _312
REMARK  126  A    between atoms: _312  and  _313
REMARK  127  A    between atoms: _312  and  _315
REMARK  128  A    between atoms: _315  and  _316
REMARK  129  A    between atoms: _321  and  _323
REMARK  130  A    between atoms: _323  and  _324
REMARK  131  A    between atoms: _323  and  _326
REMARK  132  A    between atoms: _326  and  _327
REMARK  133  A    between atoms: _330  and  _332
REMARK  134  A    between atoms: _332  and  _333
REMARK  135  A    between atoms: _332  and  _335
REMARK  136  A    between atoms: _335  and  _336
REMARK  137  A    between atoms: _338  and  _340
REMARK  138  A    between atoms: _340  and  _341
REMARK  139  A    between atoms: _340  and  _343
REMARK  140  A    between atoms: _343  and  _344
REMARK  141  A    between atoms: _346  and  _348
REMARK  142  A    between atoms: _348  and  _349
REMARK  143  A    between atoms: _352  and  _354
REMARK  144  A    between atoms: _354  and  _355
REMARK  145  A    between atoms: _354  and  _357
REMARK  146  A    between atoms: _357  and  _358
REMARK  147  A    between atoms: _361  and  _363
REMARK  148  A    between atoms: _363  and  _364
REMARK  149  A    between atoms: _363  and  _366
REMARK  150  A    between atoms: _366  and  _367
REMARK  151  A    between atoms: _367  and  _368
REMARK  152  A    between atoms: _371  and  _373
REMARK  153  A    between atoms: _373  and  _374
REMARK  154  A    between atoms: _373  and  _376
REMARK  155  A    between atoms: _376  and  _377
REMARK  156  A    between atoms: _380  and  _382
REMARK  157  A    between atoms: _382  and  _383
REMARK  158  A    between atoms: _385  and  _387
REMARK  159  A    between atoms: _387  and  _388
REMARK  160  A    between atoms: _387  and  _390
REMARK  161  A    between atoms: _390  and  _391
REMARK  162  A    between atoms: _391  and  _392
REMARK  163  A    between atoms: _395  and  _397
REMARK  164  A    between atoms: _397  and  _398
REMARK  165  A    between atoms: _397  and  _400
REMARK  166  A    between atoms: _400  and  _401
REMARK  167  A    between atoms: _401  and  _402
REMARK  168  A    between atoms: _405  and  _407
REMARK  169  A    between atoms: _407  and  _408
REMARK  170  A    between atoms: _407  and  _410
REMARK  171  A    between atoms: _410  and  _411
REMARK  172  A    between atoms: _411  and  _412
REMARK  173  A    between atoms: _417  and  _419
REMARK  174  A    between atoms: _419  and  _420
REMARK  175  A    between atoms: _419  and  _422
REMARK  176  A    between atoms: _422  and  _423
REMARK  177  A    between atoms: _423  and  _424
REMARK  178  A    between atoms: _429  and  _431
REMARK  179  A    between atoms: _431  and  _432
REMARK  180  A    between atoms: _431  and  _434
REMARK  181  A    between atoms: _434  and  _435
REMARK  182  A    between atoms: _435  and  _436
REMARK  183  A    between atoms: _436  and  _437
REMARK  184  A    between atoms: _446  and  _448
REMARK  185  A    between atoms: _448  and  _449
REMARK  186  A    between atoms: _448  and  _451
REMARK  187  A    between atoms: _451  and  _452
REMARK  188  A    between atoms: _457  and  _458
REMARK  189  A    between atoms: _460  and  _462
REMARK  190  A    between atoms: _462  and  _463
REMARK  191  A    between atoms: _462  and  _465
REMARK  192  A    between atoms: _465  and  _466
REMARK  193  A    between atoms: _466  and  _467
REMARK  194  A    between atoms: _467  and  _468
REMARK  195  A    between atoms: _468  and  _469
REMARK  196  A    between atoms: _473  and  _475
REMARK  197  A    between atoms: _475  and  _476
REMARK  198  A    between atoms: _475  and  _478
REMARK  199  A    between atoms: _478  and  _479
REMARK  200  A    between atoms: _482  and  _484
REMARK  201  A    between atoms: _484  and  _485
REMARK  202  A    between atoms: _487  and  _489
REMARK  203  A    between atoms: _489  and  _490
REMARK  204  A    between atoms: _489  and  _492
REMARK  205  A    between atoms: _492  and  _493
REMARK  206  A    between atoms: _496  and  _498
REMARK  207  A    between atoms: _498  and  _499
REMARK  208  A    between atoms: _498  and  _501
REMARK  209  A    between atoms: _501  and  _502
REMARK  210  A    between atoms: _502  and  _503
REMARK  211  A    between atoms: _503  and  _504
REMARK  212  A    between atoms: _513  and  _515
REMARK  213  A    between atoms: _515  and  _516
REMARK  214  A    between atoms: _515  and  _518
REMARK  215  A    between atoms: _518  and  _519
REMARK  216  A    between atoms: _519  and  _520
REMARK  217  A    between atoms: _523  and  _525
REMARK  218  A    between atoms: _525  and  _526
REMARK  219  A    between atoms: _525  and  _528
REMARK  220  A    between atoms: _528  and  _529
REMARK  221  A    between atoms: _529  and  _530
REMARK  222  A    between atoms: _530  and  _531
REMARK  223  A    between atoms: _540  and  _542
REMARK  224  A    between atoms: _542  and  _543
REMARK  225  A    between atoms: _542  and  _545
REMARK  226  A    between atoms: _548  and  _550
REMARK  227  A    between atoms: _550  and  _551
REMARK  228  A    between atoms: _550  and  _553
REMARK  229  A    between atoms: _553  and  _554
REMARK  230  A    between atoms: _554  and  _555
REMARK  231  A    between atoms: _558  and  _560
REMARK  232  A    between atoms: _560  and  _561
REMARK  233  A    between atoms: _560  and  _563
REMARK  234  A    between atoms: _563  and  _564
REMARK  235  A    between atoms: _567  and  _569
REMARK  236  A    between atoms: _569  and  _570
REMARK  237  A    between atoms: _569  and  _572
REMARK  238  A    between atoms: _572  and  _573
REMARK  239  A    between atoms: _573  and  _574
REMARK  240  A    between atoms: _577  and  _579
REMARK  241  A    between atoms: _579  and  _580
REMARK  242  A    between atoms: _579  and  _582
REMARK  243  A    between atoms: _582  and  _583
REMARK  244  A    between atoms: _583  and  _584
REMARK  245  A    between atoms: _589  and  _591
REMARK  246  A    between atoms: _591  and  _592
REMARK  247  A    between atoms: _594  and  _596
REMARK  248  A    between atoms: _596  and  _597
REMARK  249  A    between atoms: _596  and  _599
REMARK  250  A    between atoms: _599  and  _600
REMARK  251  A    between atoms: _600  and  _601
REMARK  252  A    between atoms: _606  and  _608
REMARK  253  A    between atoms: _608  and  _609
REMARK  254  A    between atoms: _608  and  _611
REMARK  255  A    between atoms: _611  and  _612
REMARK  256  A    between atoms: _615  and  _617
REMARK  257  A    between atoms: _617  and  _618
REMARK  258  A    between atoms: _617  and  _620
REMARK  259  A    between atoms: _620  and  _621
REMARK  260  A    between atoms: _627  and  _629
REMARK  261  A    between atoms: _629  and  _630
REMARK  262  A    between atoms: _632  and  _634
REMARK  263  A    between atoms: _634  and  _635
REMARK  264  A    between atoms: _634  and  _637
REMARK  265  A    between atoms: _637  and  _638
REMARK  266  A    between atoms: _638  and  _639
REMARK  267  A    between atoms: _643  and  _644
REMARK                            x       y       z     vdW  Elec       q    Type
REMARK                         _______ _______ _______ _____ _____    ______ ____
ROOT
ATOM      1  O   HOH     1      27.563  42.417  -1.880  0.00  0.00    +0.000 OA
ENDROOT
TORSDOF 0
REMARK  Name = ../refined-set-2016/3pju/3pju_pocket.pdb
REMARK  267 active torsions:
REMARK  status: ('A' for Active; 'I' for Inactive)
REMARK    1  A    between atoms: _1  and  _3
REMARK    2  A    between atoms: _3  and  _4
REMARK    3  A    between atoms: _3  and  _6
REMARK    4  A    between atoms: _6  and  _7
REMARK    5  A    between atoms: _13  and  _15
REMARK    6  A    between atoms: _15  and  _16
REMARK    7  A    between atoms: _15  and  _18
REMARK    8  A    between atoms: _18  and  _19
REMARK    9  A    between atoms: _19  and  _20
REMARK   10  A    between atoms: _23  and  _25
REMARK   11  A    between atoms: _25  and  _26
REMARK   12  A    between atoms: _25  and  _28
REMARK   13  A    between atoms: _28  and  _29
REMARK   14  A    between atoms: _32  and  _34
REMARK   15  A    between atoms: _34  and  _35
REMARK   16  A    between atoms: _34  and  _37
REMARK   17  A    between atoms: _37  and  _38
REMARK   18  A    between atoms: _44  and  _46
REMARK   19  A    between atoms: _46  and  _47
REMARK   20  A    between atoms: _46  and  _49
REMARK   21  A    between atoms: _49  and  _50
REMARK   22  A    between atoms: _50  and  _51
REMARK   23  A    between atoms: _56  and  _58
REMARK   24  A    between atoms: _58  and  _59
REMARK   25  A    between atoms: _58  and  _61
REMARK   26  A    between atoms: _64  and  _66
REMARK   27  A    between atoms: _66  and  _67
REMARK   28  A    between atoms: _66  and  _69
REMARK   29  A    between atoms: _69  and  _70
REMARK   30  A    between atoms: _70  and  _71
REMARK   31  A    between atoms: _71  and  _72
REMARK   32  A    between atoms: _72  and  _73
REMARK   33  A    between atoms: _77  and  _79
REMARK   34  A    between atoms: _79  and  _80
REMARK   35  A    between atoms: _79  and  _82
REMARK   36  A    between atoms: _85  and  _87
REMARK   37  A    between atoms: _87  and  _88
REMARK   38  A    between atoms: _87  and  _90
REMARK   39  A    between atoms: _90  and  _91
REMARK   40  A    between atoms: _94  and  _96
REMARK   41  A    between atoms: _96  and  _97
REMARK   42  A    between atoms: _96  and  _99
REMARK   43  A    between atoms: _99  and  _100
REMARK   44  A    between atoms: _102  and  _104
REMARK   45  A    between atoms: _104  and  _105
REMARK   46  A    between atoms: _104  and  _107
REMARK   47  A    between atoms: _107  and  _108
REMARK   48  A    between atoms: _108  and  _109
REMARK   49  A    between atoms: _109  and  _110
REMARK   50  A    between atoms: _119  and  _121
REMARK   51  A    between atoms: _121  and  _122
REMARK   52  A    between atoms: _121  and  _124
REMARK   53  A    between atoms: _124  and  _125
REMARK   54  A    between atoms: _129  and  _130
REMARK   55  A    between atoms: _135  and  _137
REMARK   56  A    between atoms: _137  and  _138
REMARK   57  A    between atoms: _141  and  _143
REMARK   58  A    between atoms: _143  and  _144
REMARK   59  A    between atoms: _146  and  _148
REMARK   60  A    between atoms: _148  and  _149
REMARK   61  A    between atoms: _148  and  _151
REMARK   62  A    between atoms: _151  and  _152
REMARK   63  A    between atoms: _152  and  _153
REMARK   64  A    between atoms: _153  and  _154
REMARK   65  A    between atoms: _163  and  _165
REMARK   66  A    between atoms: _165  and  _166
REMARK   67  A    between atoms: _165  and  _168
REMARK   68  A    between atoms: _168  and  _169
REMARK   69  A    between atoms: _175  and  _177
REMARK   70  A    between atoms: _177  and  _178
REMARK   71  A    between atoms: _177  and  _180
REMARK   72  A    between atoms: _180  and  _181
REMARK   73  A    between atoms: _185  and  _186
REMARK   74  A    between atoms: _191  and  _193
REMARK   75  A    between atoms: _193  and  _194
REMARK   76  A    between atoms: _193  and  _196
REMARK   77  A    between atoms: _196  and  _197
REMARK   78  A    between atoms: _200  and  _202
REMARK   79  A    between atoms: _202  and  _203
REMARK   80  A    between atoms: _202  and  _205
REMARK   81  A    between atoms: _205  and  _206
REMARK   82  A    between atoms: _206  and  _207
REMARK   83  A    between atoms: _210  and  _212
REMARK   84  A    between atoms: _212  and  _213
REMARK   85  A    between atoms: _212  and  _215
REMARK   86  A    between atoms: _215  and  _216
REMARK   87  A    between atoms: _219  and  _221
REMARK   88  A    between atoms: _221  and  _222
REMARK   89  A    between atoms: _225  and  _227
REMARK   90  A    between atoms: _227  and  _228
REMARK   91  A    between atoms: _227  and  _230
REMARK   92  A    between atoms: _230  and  _231
REMARK   93  A    between atoms: _234  and  _236
REMARK   94  A    between atoms: _236  and  _237
REMARK   95  A    between atoms: _236  and  _239
REMARK   96  A    between atoms: _239  and  _240
REMARK   97  A    between atoms: _243  and  _245
REMARK   98  A    between atoms: _245  and  _246
REMARK   99  A    between atoms: _245  and  _248
REMARK  100  A    between atoms: _248  and  _249
REMARK  101  A    between atoms: _249  and  _250
REMARK  102  A    between atoms: _250  and  _251
REMARK  103  A    between atoms: _260  and  _262
REMARK  104  A    between atoms: _262  and  _263
REMARK  105  A    between atoms: _262  and  _265
REMARK  106  A    between atoms: _265  and  _266
REMARK  107  A    between atoms: _269  and  _271
REMARK  108  A    between atoms: _271  and  _272
REMARK  109  A    between atoms: _271  and  _274
REMARK  110  A    between atoms: _274  and  _275
REMARK  111  A    between atoms: _275  and  _276
REMARK  112  A    between atoms: _278  and  _280
REMARK  113  A    between atoms: _280  and  _281
REMARK  114  A    between atoms: _280  and  _283
REMARK  115  A    between atoms: _283  and  _284
REMARK  116  A    between atoms: _287  and  _289
REMARK  117  A    between atoms: _289  and  _290
REMARK  118  A    between atoms: _289  and  _292
REMARK  119  A    between atoms: _295  and  _297
REMARK  120  A    between atoms: _297  and  _298
REMARK  121  A    between atoms: _301  and  _303
REMARK  122  A    between atoms: _303  and  _304
REMARK  123  A    between atoms: _303  and  _306
REMARK  124  A    between atoms: _306  and  _307
REMARK  125  A    between atoms: _310  and  _312
REMARK  126  A    between atoms: _312  and  _313
REMARK  127  A    between atoms: _312  and  _315
REMARK  128  A    between atoms: _315  and  _316
REMARK  129  A    between atoms: _321  and  _323
REMARK  130  A    between atoms: _323  and  _324
REMARK  131  A    between atoms: _323  and  _326
REMARK  132  A    between atoms: _326  and  _327
REMARK  133  A    between atoms: _330  and  _332
REMARK  134  A    between atoms: _332  and  _333
REMARK  135  A    between atoms: _332  and  _335
REMARK  136  A    between atoms: _335  and  _336
REMARK  137  A    between atoms: _338  and  _340
REMARK  138  A    between atoms: _340  and  _341
REMARK  139  A    between atoms: _340  and  _343
REMARK  140  A    between atoms: _343  and  _344
REMARK  141  A    between atoms: _346  and  _348
REMARK  142  A    between atoms: _348  and  _349
REMARK  143  A    between atoms: _352  and  _354
REMARK  144  A    between atoms: _354  and  _355
REMARK  145  A    between atoms: _354  and  _357
REMARK  146  A    between atoms: _357  and  _358
REMARK  147  A    between atoms: _361  and  _363
REMARK  148  A    between atoms: _363  and  _364
REMARK  149  A    between atoms: _363  and  _366
REMARK  150  A    between atoms: _366  and  _367
REMARK  151  A    between atoms: _367  and  _368
REMARK  152  A    between atoms: _371  and  _373
REMARK  153  A    between atoms: _373  and  _374
REMARK  154  A    between atoms: _373  and  _376
REMARK  155  A    between atoms: _376  and  _377
REMARK  156  A    between atoms: _380  and  _382
REMARK  157  A    between atoms: _382  and  _383
REMARK  158  A    between atoms: _385  and  _387
REMARK  159  A    between atoms: _387  and  _388
REMARK  160  A    between atoms: _387  and  _390
REMARK  161  A    between atoms: _390  and  _391
REMARK  162  A    between atoms: _391  and  _392
REMARK  163  A    between atoms: _395  and  _397
REMARK  164  A    between atoms: _397  and  _398
REMARK  165  A    between atoms: _397  and  _400
REMARK  166  A    between atoms: _400  and  _401
REMARK  167  A    between atoms: _401  and  _402
REMARK  168  A    between atoms: _405  and  _407
REMARK  169  A    between atoms: _407  and  _408
REMARK  170  A    between atoms: _407  and  _410
REMARK  171  A    between atoms: _410  and  _411
REMARK  172  A    between atoms: _411  and  _412
REMARK  173  A    between atoms: _417  and  _419
REMARK  174  A    between atoms: _419  and  _420
REMARK  175  A    between atoms: _419  and  _422
REMARK  176  A    between atoms: _422  and  _423
REMARK  177  A    between atoms: _423  and  _424
REMARK  178  A    between atoms: _429  and  _431
REMARK  179  A    between atoms: _431  and  _432
REMARK  180  A    between atoms: _431  and  _434
REMARK  181  A    between atoms: _434  and  _435
REMARK  182  A    between atoms: _435  and  _436
REMARK  183  A    between atoms: _436  and  _437
REMARK  184  A    between atoms: _446  and  _448
REMARK  185  A    between atoms: _448  and  _449
REMARK  186  A    between atoms: _448  and  _451
REMARK  187  A    between atoms: _451  and  _452
REMARK  188  A    between atoms: _457  and  _458
REMARK  189  A    between atoms: _460  and  _462
REMARK  190  A    between atoms: _462  and  _463
REMARK  191  A    between atoms: _462  and  _465
REMARK  192  A    between atoms: _465  and  _466
REMARK  193  A    between atoms: _466  and  _467
REMARK  194  A    between atoms: _467  and  _468
REMARK  195  A    between atoms: _468  and  _469
REMARK  196  A    between atoms: _473  and  _475
REMARK  197  A    between atoms: _475  and  _476
REMARK  198  A    between atoms: _475  and  _478
REMARK  199  A    between atoms: _478  and  _479
REMARK  200  A    between atoms: _482  and  _484
REMARK  201  A    between atoms: _484  and  _485
REMARK  202  A    between atoms: _487  and  _489
REMARK  203  A    between atoms: _489  and  _490
REMARK  204  A    between atoms: _489  and  _492
REMARK  205  A    between atoms: _492  and  _493
REMARK  206  A    between atoms: _496  and  _498
REMARK  207  A    between atoms: _498  and  _499
REMARK  208  A    between atoms: _498  and  _501
REMARK  209  A    between atoms: _501  and  _502
REMARK  210  A    between atoms: _502  and  _503
REMARK  211  A    between atoms: _503  and  _504
REMARK  212  A    between atoms: _513  and  _515
REMARK  213  A    between atoms: _515  and  _516
REMARK  214  A    between atoms: _515  and  _518
REMARK  215  A    between atoms: _518  and  _519
REMARK  216  A    between atoms: _519  and  _520
REMARK  217  A    between atoms: _523  and  _525
REMARK  218  A    between atoms: _525  and  _526
REMARK  219  A    between atoms: _525  and  _528
REMARK  220  A    between atoms: _528  and  _529
REMARK  221  A    between atoms: _529  and  _530
REMARK  222  A    between atoms: _530  and  _531
REMARK  223  A    between atoms: _540  and  _542
REMARK  224  A    between atoms: _542  and  _543
REMARK  225  A    between atoms: _542  and  _545
REMARK  226  A    between atoms: _548  and  _550
REMARK  227  A    between atoms: _550  and  _551
REMARK  228  A    between atoms: _550  and  _553
REMARK  229  A    between atoms: _553  and  _554
REMARK  230  A    between atoms: _554  and  _555
REMARK  231  A    between atoms: _558  and  _560
REMARK  232  A    between atoms: _560  and  _561
REMARK  233  A    between atoms: _560  and  _563
REMARK  234  A    between atoms: _563  and  _564
REMARK  235  A    between atoms: _567  and  _569
REMARK  236  A    between atoms: _569  and  _570
REMARK  237  A    between atoms: _569  and  _572
REMARK  238  A    between atoms: _572  and  _573
REMARK  239  A    between atoms: _573  and  _574
REMARK  240  A    between atoms: _577  and  _579
REMARK  241  A    between atoms: _579  and  _580
REMARK  242  A    between atoms: _579  and  _582
REMARK  243  A    between atoms: _582  and  _583
REMARK  244  A    between atoms: _583  and  _584
REMARK  245  A    between atoms: _589  and  _591
REMARK  246  A    between atoms: _591  and  _592
REMARK  247  A    between atoms: _594  and  _596
REMARK  248  A    between atoms: _596  and  _597
REMARK  249  A    between atoms: _596  and  _599
REMARK  250  A    between atoms: _599  and  _600
REMARK  251  A    between atoms: _600  and  _601
REMARK  252  A    between atoms: _606  and  _608
REMARK  253  A    between atoms: _608  and  _609
REMARK  254  A    between atoms: _608  and  _611
REMARK  255  A    between atoms: _611  and  _612
REMARK  256  A    between atoms: _615  and  _617
REMARK  257  A    between atoms: _617  and  _618
REMARK  258  A    between atoms: _617  and  _620
REMARK  259  A    between atoms: _620  and  _621
REMARK  260  A    between atoms: _627  and  _629
REMARK  261  A    between atoms: _629  and  _630
REMARK  262  A    between atoms: _632  and  _634
REMARK  263  A    between atoms: _634  and  _635
REMARK  264  A    between atoms: _634  and  _637
REMARK  265  A    between atoms: _637  and  _638
REMARK  266  A    between atoms: _638  and  _639
REMARK  267  A    between atoms: _643  and  _644
REMARK                            x       y       z     vdW  Elec       q    Type
REMARK                         _______ _______ _______ _____ _____    ______ ____
ROOT
ATOM      1  O   HOH     1      29.459  40.539  -1.246  0.00  0.00    +0.000 OA
ENDROOT
TORSDOF 0
REMARK  Name = ../refined-set-2016/3pju/3pju_pocket.pdb
REMARK  267 active torsions:
REMARK  status: ('A' for Active; 'I' for Inactive)
REMARK    1  A    between atoms: _1  and  _3
REMARK    2  A    between atoms: _3  and  _4
REMARK    3  A    between atoms: _3  and  _6
REMARK    4  A    between atoms: _6  and  _7
REMARK    5  A    between atoms: _13  and  _15
REMARK    6  A    between atoms: _15  and  _16
REMARK    7  A    between atoms: _15  and  _18
REMARK    8  A    between atoms: _18  and  _19
REMARK    9  A    between atoms: _19  and  _20
REMARK   10  A    between atoms: _23  and  _25
REMARK   11  A    between atoms: _25  and  _26
REMARK   12  A    between atoms: _25  and  _28
REMARK   13  A    between atoms: _28  and  _29
REMARK   14  A    between atoms: _32  and  _34
REMARK   15  A    between atoms: _34  and  _35
REMARK   16  A    between atoms: _34  and  _37
REMARK   17  A    between atoms: _37  and  _38
REMARK   18  A    between atoms: _44  and  _46
REMARK   19  A    between atoms: _46  and  _47
REMARK   20  A    between atoms: _46  and  _49
REMARK   21  A    between atoms: _49  and  _50
REMARK   22  A    between atoms: _50  and  _51
REMARK   23  A    between atoms: _56  and  _58
REMARK   24  A    between atoms: _58  and  _59
REMARK   25  A    between atoms: _58  and  _61
REMARK   26  A    between atoms: _64  and  _66
REMARK   27  A    between atoms: _66  and  _67
REMARK   28  A    between atoms: _66  and  _69
REMARK   29  A    between atoms: _69  and  _70
REMARK   30  A    between atoms: _70  and  _71
REMARK   31  A    between atoms: _71  and  _72
REMARK   32  A    between atoms: _72  and  _73
REMARK   33  A    between atoms: _77  and  _79
REMARK   34  A    between atoms: _79  and  _80
REMARK   35  A    between atoms: _79  and  _82
REMARK   36  A    between atoms: _85  and  _87
REMARK   37  A    between atoms: _87  and  _88
REMARK   38  A    between atoms: _87  and  _90
REMARK   39  A    between atoms: _90  and  _91
REMARK   40  A    between atoms: _94  and  _96
REMARK   41  A    between atoms: _96  and  _97
REMARK   42  A    between atoms: _96  and  _99
REMARK   43  A    between atoms: _99  and  _100
REMARK   44  A    between atoms: _102  and  _104
REMARK   45  A    between atoms: _104  and  _105
REMARK   46  A    between atoms: _104  and  _107
REMARK   47  A    between atoms: _107  and  _108
REMARK   48  A    between atoms: _108  and  _109
REMARK   49  A    between atoms: _109  and  _110
REMARK   50  A    between atoms: _119  and  _121
REMARK   51  A    between atoms: _121  and  _122
REMARK   52  A    between atoms: _121  and  _124
REMARK   53  A    between atoms: _124  and  _125
REMARK   54  A    between atoms: _129  and  _130
REMARK   55  A    between atoms: _135  and  _137
REMARK   56  A    between atoms: _137  and  _138
REMARK   57  A    between atoms: _141  and  _143
REMARK   58  A    between atoms: _143  and  _144
REMARK   59  A    between atoms: _146  and  _148
REMARK   60  A    between atoms: _148  and  _149
REMARK   61  A    between atoms: _148  and  _151
REMARK   62  A    between atoms: _151  and  _152
REMARK   63  A    between atoms: _152  and  _153
REMARK   64  A    between atoms: _153  and  _154
REMARK   65  A    between atoms: _163  and  _165
REMARK   66  A    between atoms: _165  and  _166
REMARK   67  A    between atoms: _165  and  _168
REMARK   68  A    between atoms: _168  and  _169
REMARK   69  A    between atoms: _175  and  _177
REMARK   70  A    between atoms: _177  and  _178
REMARK   71  A    between atoms: _177  and  _180
REMARK   72  A    between atoms: _180  and  _181
REMARK   73  A    between atoms: _185  and  _186
REMARK   74  A    between atoms: _191  and  _193
REMARK   75  A    between atoms: _193  and  _194
REMARK   76  A    between atoms: _193  and  _196
REMARK   77  A    between atoms: _196  and  _197
REMARK   78  A    between atoms: _200  and  _202
REMARK   79  A    between atoms: _202  and  _203
REMARK   80  A    between atoms: _202  and  _205
REMARK   81  A    between atoms: _205  and  _206
REMARK   82  A    between atoms: _206  and  _207
REMARK   83  A    between atoms: _210  and  _212
REMARK   84  A    between atoms: _212  and  _213
REMARK   85  A    between atoms: _212  and  _215
REMARK   86  A    between atoms: _215  and  _216
REMARK   87  A    between atoms: _219  and  _221
REMARK   88  A    between atoms: _221  and  _222
REMARK   89  A    between atoms: _225  and  _227
REMARK   90  A    between atoms: _227  and  _228
REMARK   91  A    between atoms: _227  and  _230
REMARK   92  A    between atoms: _230  and  _231
REMARK   93  A    between atoms: _234  and  _236
REMARK   94  A    between atoms: _236  and  _237
REMARK   95  A    between atoms: _236  and  _239
REMARK   96  A    between atoms: _239  and  _240
REMARK   97  A    between atoms: _243  and  _245
REMARK   98  A    between atoms: _245  and  _246
REMARK   99  A    between atoms: _245  and  _248
REMARK  100  A    between atoms: _248  and  _249
REMARK  101  A    between atoms: _249  and  _250
REMARK  102  A    between atoms: _250  and  _251
REMARK  103  A    between atoms: _260  and  _262
REMARK  104  A    between atoms: _262  and  _263
REMARK  105  A    between atoms: _262  and  _265
REMARK  106  A    between atoms: _265  and  _266
REMARK  107  A    between atoms: _269  and  _271
REMARK  108  A    between atoms: _271  and  _272
REMARK  109  A    between atoms: _271  and  _274
REMARK  110  A    between atoms: _274  and  _275
REMARK  111  A    between atoms: _275  and  _276
REMARK  112  A    between atoms: _278  and  _280
REMARK  113  A    between atoms: _280  and  _281
REMARK  114  A    between atoms: _280  and  _283
REMARK  115  A    between atoms: _283  and  _284
REMARK  116  A    between atoms: _287  and  _289
REMARK  117  A    between atoms: _289  and  _290
REMARK  118  A    between atoms: _289  and  _292
REMARK  119  A    between atoms: _295  and  _297
REMARK  120  A    between atoms: _297  and  _298
REMARK  121  A    between atoms: _301  and  _303
REMARK  122  A    between atoms: _303  and  _304
REMARK  123  A    between atoms: _303  and  _306
REMARK  124  A    between atoms: _306  and  _307
REMARK  125  A    between atoms: _310  and  _312
REMARK  126  A    between atoms: _312  and  _313
REMARK  127  A    between atoms: _312  and  _315
REMARK  128  A    between atoms: _315  and  _316
REMARK  129  A    between atoms: _321  and  _323
REMARK  130  A    between atoms: _323  and  _324
REMARK  131  A    between atoms: _323  and  _326
REMARK  132  A    between atoms: _326  and  _327
REMARK  133  A    between atoms: _330  and  _332
REMARK  134  A    between atoms: _332  and  _333
REMARK  135  A    between atoms: _332  and  _335
REMARK  136  A    between atoms: _335  and  _336
REMARK  137  A    between atoms: _338  and  _340
REMARK  138  A    between atoms: _340  and  _341
REMARK  139  A    between atoms: _340  and  _343
REMARK  140  A    between atoms: _343  and  _344
REMARK  141  A    between atoms: _346  and  _348
REMARK  142  A    between atoms: _348  and  _349
REMARK  143  A    between atoms: _352  and  _354
REMARK  144  A    between atoms: _354  and  _355
REMARK  145  A    between atoms: _354  and  _357
REMARK  146  A    between atoms: _357  and  _358
REMARK  147  A    between atoms: _361  and  _363
REMARK  148  A    between atoms: _363  and  _364
REMARK  149  A    between atoms: _363  and  _366
REMARK  150  A    between atoms: _366  and  _367
REMARK  151  A    between atoms: _367  and  _368
REMARK  152  A    between atoms: _371  and  _373
REMARK  153  A    between atoms: _373  and  _374
REMARK  154  A    between atoms: _373  and  _376
REMARK  155  A    between atoms: _376  and  _377
REMARK  156  A    between atoms: _380  and  _382
REMARK  157  A    between atoms: _382  and  _383
REMARK  158  A    between atoms: _385  and  _387
REMARK  159  A    between atoms: _387  and  _388
REMARK  160  A    between atoms: _387  and  _390
REMARK  161  A    between atoms: _390  and  _391
REMARK  162  A    between atoms: _391  and  _392
REMARK  163  A    between atoms: _395  and  _397
REMARK  164  A    between atoms: _397  and  _398
REMARK  165  A    between atoms: _397  and  _400
REMARK  166  A    between atoms: _400  and  _401
REMARK  167  A    between atoms: _401  and  _402
REMARK  168  A    between atoms: _405  and  _407
REMARK  169  A    between atoms: _407  and  _408
REMARK  170  A    between atoms: _407  and  _410
REMARK  171  A    between atoms: _410  and  _411
REMARK  172  A    between atoms: _411  and  _412
REMARK  173  A    between atoms: _417  and  _419
REMARK  174  A    between atoms: _419  and  _420
REMARK  175  A    between atoms: _419  and  _422
REMARK  176  A    between atoms: _422  and  _423
REMARK  177  A    between atoms: _423  and  _424
REMARK  178  A    between atoms: _429  and  _431
REMARK  179  A    between atoms: _431  and  _432
REMARK  180  A    between atoms: _431  and  _434
REMARK  181  A    between atoms: _434  and  _435
REMARK  182  A    between atoms: _435  and  _436
REMARK  183  A    between atoms: _436  and  _437
REMARK  184  A    between atoms: _446  and  _448
REMARK  185  A    between atoms: _448  and  _449
REMARK  186  A    between atoms: _448  and  _451
REMARK  187  A    between atoms: _451  and  _452
REMARK  188  A    between atoms: _457  and  _458
REMARK  189  A    between atoms: _460  and  _462
REMARK  190  A    between atoms: _462  and  _463
REMARK  191  A    between atoms: _462  and  _465
REMARK  192  A    between atoms: _465  and  _466
REMARK  193  A    between atoms: _466  and  _467
REMARK  194  A    between atoms: _467  and  _468
REMARK  195  A    between atoms: _468  and  _469
REMARK  196  A    between atoms: _473  and  _475
REMARK  197  A    between atoms: _475  and  _476
REMARK  198  A    between atoms: _475  and  _478
REMARK  199  A    between atoms: _478  and  _479
REMARK  200  A    between atoms: _482  and  _484
REMARK  201  A    between atoms: _484  and  _485
REMARK  202  A    between atoms: _487  and  _489
REMARK  203  A    between atoms: _489  and  _490
REMARK  204  A    between atoms: _489  and  _492
REMARK  205  A    between atoms: _492  and  _493
REMARK  206  A    between atoms: _496  and  _498
REMARK  207  A    between atoms: _498  and  _499
REMARK  208  A    between atoms: _498  and  _501
REMARK  209  A    between atoms: _501  and  _502
REMARK  210  A    between atoms: _502  and  _503
REMARK  211  A    between atoms: _503  and  _504
REMARK  212  A    between atoms: _513  and  _515
REMARK  213  A    between atoms: _515  and  _516
REMARK  214  A    between atoms: _515  and  _518
REMARK  215  A    between atoms: _518  and  _519
REMARK  216  A    between atoms: _519  and  _520
REMARK  217  A    between atoms: _523  and  _525
REMARK  218  A    between atoms: _525  and  _526
REMARK  219  A    between atoms: _525  and  _528
REMARK  220  A    between atoms: _528  and  _529
REMARK  221  A    between atoms: _529  and  _530
REMARK  222  A    between atoms: _530  and  _531
REMARK  223  A    between atoms: _540  and  _542
REMARK  224  A    between atoms: _542  and  _543
REMARK  225  A    between atoms: _542  and  _545
REMARK  226  A    between atoms: _548  and  _550
REMARK  227  A    between atoms: _550  and  _551
REMARK  228  A    between atoms: _550  and  _553
REMARK  229  A    between atoms: _553  and  _554
REMARK  230  A    between atoms: _554  and  _555
REMARK  231  A    between atoms: _558  and  _560
REMARK  232  A    between atoms: _560  and  _561
REMARK  233  A    between atoms: _560  and  _563
REMARK  234  A    between atoms: _563  and  _564
REMARK  235  A    between atoms: _567  and  _569
REMARK  236  A    between atoms: _569  and  _570
REMARK  237  A    between atoms: _569  and  _572
REMARK  238  A    between atoms: _572  and  _573
REMARK  239  A    between atoms: _573  and  _574
REMARK  240  A    between atoms: _577  and  _579
REMARK  241  A    between atoms: _579  and  _580
REMARK  242  A    between atoms: _579  and  _582
REMARK  243  A    between atoms: _582  and  _583
REMARK  244  A    between atoms: _583  and  _584
REMARK  245  A    between atoms: _589  and  _591
REMARK  246  A    between atoms: _591  and  _592
REMARK  247  A    between atoms: _594  and  _596
REMARK  248  A    between atoms: _596  and  _597
REMARK  249  A    between atoms: _596  and  _599
REMARK  250  A    between atoms: _599  and  _600
REMARK  251  A    between atoms: _600  and  _601
REMARK  252  A    between atoms: _606  and  _608
REMARK  253  A    between atoms: _608  and  _609
REMARK  254  A    between atoms: _608  and  _611
REMARK  255  A    between atoms: _611  and  _612
REMARK  256  A    between atoms: _615  and  _617
REMARK  257  A    between atoms: _617  and  _618
REMARK  258  A    between atoms: _617  and  _620
REMARK  259  A    between atoms: _620  and  _621
REMARK  260  A    between atoms: _627  and  _629
REMARK  261  A    between atoms: _629  and  _630
REMARK  262  A    between atoms: _632  and  _634
REMARK  263  A    between atoms: _634  and  _635
REMARK  264  A    between atoms: _634  and  _637
REMARK  265  A    between atoms: _637  and  _638
REMARK  266  A    between atoms: _638  and  _639
REMARK  267  A    between atoms: _643  and  _644
REMARK                            x       y       z     vdW  Elec       q    Type
REMARK                         _______ _______ _______ _____ _____    ______ ____
ROOT
ATOM      1  O   HOH     1      35.345  28.034   7.479  0.00  0.00    +0.000 OA
ENDROOT
TORSDOF 0
REMARK  Name = ../refined-set-2016/3pju/3pju_pocket.pdb
REMARK  267 active torsions:
REMARK  status: ('A' for Active; 'I' for Inactive)
REMARK    1  A    between atoms: _1  and  _3
REMARK    2  A    between atoms: _3  and  _4
REMARK    3  A    between atoms: _3  and  _6
REMARK    4  A    between atoms: _6  and  _7
REMARK    5  A    between atoms: _13  and  _15
REMARK    6  A    between atoms: _15  and  _16
REMARK    7  A    between atoms: _15  and  _18
REMARK    8  A    between atoms: _18  and  _19
REMARK    9  A    between atoms: _19  and  _20
REMARK   10  A    between atoms: _23  and  _25
REMARK   11  A    between atoms: _25  and  _26
REMARK   12  A    between atoms: _25  and  _28
REMARK   13  A    between atoms: _28  and  _29
REMARK   14  A    between atoms: _32  and  _34
REMARK   15  A    between atoms: _34  and  _35
REMARK   16  A    between atoms: _34  and  _37
REMARK   17  A    between atoms: _37  and  _38
REMARK   18  A    between atoms: _44  and  _46
REMARK   19  A    between atoms: _46  and  _47
REMARK   20  A    between atoms: _46  and  _49
REMARK   21  A    between atoms: _49  and  _50
REMARK   22  A    between atoms: _50  and  _51
REMARK   23  A    between atoms: _56  and  _58
REMARK   24  A    between atoms: _58  and  _59
REMARK   25  A    between atoms: _58  and  _61
REMARK   26  A    between atoms: _64  and  _66
REMARK   27  A    between atoms: _66  and  _67
REMARK   28  A    between atoms: _66  and  _69
REMARK   29  A    between atoms: _69  and  _70
REMARK   30  A    between atoms: _70  and  _71
REMARK   31  A    between atoms: _71  and  _72
REMARK   32  A    between atoms: _72  and  _73
REMARK   33  A    between atoms: _77  and  _79
REMARK   34  A    between atoms: _79  and  _80
REMARK   35  A    between atoms: _79  and  _82
REMARK   36  A    between atoms: _85  and  _87
REMARK   37  A    between atoms: _87  and  _88
REMARK   38  A    between atoms: _87  and  _90
REMARK   39  A    between atoms: _90  and  _91
REMARK   40  A    between atoms: _94  and  _96
REMARK   41  A    between atoms: _96  and  _97
REMARK   42  A    between atoms: _96  and  _99
REMARK   43  A    between atoms: _99  and  _100
REMARK   44  A    between atoms: _102  and  _104
REMARK   45  A    between atoms: _104  and  _105
REMARK   46  A    between atoms: _104  and  _107
REMARK   47  A    between atoms: _107  and  _108
REMARK   48  A    between atoms: _108  and  _109
REMARK   49  A    between atoms: _109  and  _110
REMARK   50  A    between atoms: _119  and  _121
REMARK   51  A    between atoms: _121  and  _122
REMARK   52  A    between atoms: _121  and  _124
REMARK   53  A    between atoms: _124  and  _125
REMARK   54  A    between atoms: _129  and  _130
REMARK   55  A    between atoms: _135  and  _137
REMARK   56  A    between atoms: _137  and  _138
REMARK   57  A    between atoms: _141  and  _143
REMARK   58  A    between atoms: _143  and  _144
REMARK   59  A    between atoms: _146  and  _148
REMARK   60  A    between atoms: _148  and  _149
REMARK   61  A    between atoms: _148  and  _151
REMARK   62  A    between atoms: _151  and  _152
REMARK   63  A    between atoms: _152  and  _153
REMARK   64  A    between atoms: _153  and  _154
REMARK   65  A    between atoms: _163  and  _165
REMARK   66  A    between atoms: _165  and  _166
REMARK   67  A    between atoms: _165  and  _168
REMARK   68  A    between atoms: _168  and  _169
REMARK   69  A    between atoms: _175  and  _177
REMARK   70  A    between atoms: _177  and  _178
REMARK   71  A    between atoms: _177  and  _180
REMARK   72  A    between atoms: _180  and  _181
REMARK   73  A    between atoms: _185  and  _186
REMARK   74  A    between atoms: _191  and  _193
REMARK   75  A    between atoms: _193  and  _194
REMARK   76  A    between atoms: _193  and  _196
REMARK   77  A    between atoms: _196  and  _197
REMARK   78  A    between atoms: _200  and  _202
REMARK   79  A    between atoms: _202  and  _203
REMARK   80  A    between atoms: _202  and  _205
REMARK   81  A    between atoms: _205  and  _206
REMARK   82  A    between atoms: _206  and  _207
REMARK   83  A    between atoms: _210  and  _212
REMARK   84  A    between atoms: _212  and  _213
REMARK   85  A    between atoms: _212  and  _215
REMARK   86  A    between atoms: _215  and  _216
REMARK   87  A    between atoms: _219  and  _221
REMARK   88  A    between atoms: _221  and  _222
REMARK   89  A    between atoms: _225  and  _227
REMARK   90  A    between atoms: _227  and  _228
REMARK   91  A    between atoms: _227  and  _230
REMARK   92  A    between atoms: _230  and  _231
REMARK   93  A    between atoms: _234  and  _236
REMARK   94  A    between atoms: _236  and  _237
REMARK   95  A    between atoms: _236  and  _239
REMARK   96  A    between atoms: _239  and  _240
REMARK   97  A    between atoms: _243  and  _245
REMARK   98  A    between atoms: _245  and  _246
REMARK   99  A    between atoms: _245  and  _248
REMARK  100  A    between atoms: _248  and  _249
REMARK  101  A    between atoms: _249  and  _250
REMARK  102  A    between atoms: _250  and  _251
REMARK  103  A    between atoms: _260  and  _262
REMARK  104  A    between atoms: _262  and  _263
REMARK  105  A    between atoms: _262  and  _265
REMARK  106  A    between atoms: _265  and  _266
REMARK  107  A    between atoms: _269  and  _271
REMARK  108  A    between atoms: _271  and  _272
REMARK  109  A    between atoms: _271  and  _274
REMARK  110  A    between atoms: _274  and  _275
REMARK  111  A    between atoms: _275  and  _276
REMARK  112  A    between atoms: _278  and  _280
REMARK  113  A    between atoms: _280  and  _281
REMARK  114  A    between atoms: _280  and  _283
REMARK  115  A    between atoms: _283  and  _284
REMARK  116  A    between atoms: _287  and  _289
REMARK  117  A    between atoms: _289  and  _290
REMARK  118  A    between atoms: _289  and  _292
REMARK  119  A    between atoms: _295  and  _297
REMARK  120  A    between atoms: _297  and  _298
REMARK  121  A    between atoms: _301  and  _303
REMARK  122  A    between atoms: _303  and  _304
REMARK  123  A    between atoms: _303  and  _306
REMARK  124  A    between atoms: _306  and  _307
REMARK  125  A    between atoms: _310  and  _312
REMARK  126  A    between atoms: _312  and  _313
REMARK  127  A    between atoms: _312  and  _315
REMARK  128  A    between atoms: _315  and  _316
REMARK  129  A    between atoms: _321  and  _323
REMARK  130  A    between atoms: _323  and  _324
REMARK  131  A    between atoms: _323  and  _326
REMARK  132  A    between atoms: _326  and  _327
REMARK  133  A    between atoms: _330  and  _332
REMARK  134  A    between atoms: _332  and  _333
REMARK  135  A    between atoms: _332  and  _335
REMARK  136  A    between atoms: _335  and  _336
REMARK  137  A    between atoms: _338  and  _340
REMARK  138  A    between atoms: _340  and  _341
REMARK  139  A    between atoms: _340  and  _343
REMARK  140  A    between atoms: _343  and  _344
REMARK  141  A    between atoms: _346  and  _348
REMARK  142  A    between atoms: _348  and  _349
REMARK  143  A    between atoms: _352  and  _354
REMARK  144  A    between atoms: _354  and  _355
REMARK  145  A    between atoms: _354  and  _357
REMARK  146  A    between atoms: _357  and  _358
REMARK  147  A    between atoms: _361  and  _363
REMARK  148  A    between atoms: _363  and  _364
REMARK  149  A    between atoms: _363  and  _366
REMARK  150  A    between atoms: _366  and  _367
REMARK  151  A    between atoms: _367  and  _368
REMARK  152  A    between atoms: _371  and  _373
REMARK  153  A    between atoms: _373  and  _374
REMARK  154  A    between atoms: _373  and  _376
REMARK  155  A    between atoms: _376  and  _377
REMARK  156  A    between atoms: _380  and  _382
REMARK  157  A    between atoms: _382  and  _383
REMARK  158  A    between atoms: _385  and  _387
REMARK  159  A    between atoms: _387  and  _388
REMARK  160  A    between atoms: _387  and  _390
REMARK  161  A    between atoms: _390  and  _391
REMARK  162  A    between atoms: _391  and  _392
REMARK  163  A    between atoms: _395  and  _397
REMARK  164  A    between atoms: _397  and  _398
REMARK  165  A    between atoms: _397  and  _400
REMARK  166  A    between atoms: _400  and  _401
REMARK  167  A    between atoms: _401  and  _402
REMARK  168  A    between atoms: _405  and  _407
REMARK  169  A    between atoms: _407  and  _408
REMARK  170  A    between atoms: _407  and  _410
REMARK  171  A    between atoms: _410  and  _411
REMARK  172  A    between atoms: _411  and  _412
REMARK  173  A    between atoms: _417  and  _419
REMARK  174  A    between atoms: _419  and  _420
REMARK  175  A    between atoms: _419  and  _422
REMARK  176  A    between atoms: _422  and  _423
REMARK  177  A    between atoms: _423  and  _424
REMARK  178  A    between atoms: _429  and  _431
REMARK  179  A    between atoms: _431  and  _432
REMARK  180  A    between atoms: _431  and  _434
REMARK  181  A    between atoms: _434  and  _435
REMARK  182  A    between atoms: _435  and  _436
REMARK  183  A    between atoms: _436  and  _437
REMARK  184  A    between atoms: _446  and  _448
REMARK  185  A    between atoms: _448  and  _449
REMARK  186  A    between atoms: _448  and  _451
REMARK  187  A    between atoms: _451  and  _452
REMARK  188  A    between atoms: _457  and  _458
REMARK  189  A    between atoms: _460  and  _462
REMARK  190  A    between atoms: _462  and  _463
REMARK  191  A    between atoms: _462  and  _465
REMARK  192  A    between atoms: _465  and  _466
REMARK  193  A    between atoms: _466  and  _467
REMARK  194  A    between atoms: _467  and  _468
REMARK  195  A    between atoms: _468  and  _469
REMARK  196  A    between atoms: _473  and  _475
REMARK  197  A    between atoms: _475  and  _476
REMARK  198  A    between atoms: _475  and  _478
REMARK  199  A    between atoms: _478  and  _479
REMARK  200  A    between atoms: _482  and  _484
REMARK  201  A    between atoms: _484  and  _485
REMARK  202  A    between atoms: _487  and  _489
REMARK  203  A    between atoms: _489  and  _490
REMARK  204  A    between atoms: _489  and  _492
REMARK  205  A    between atoms: _492  and  _493
REMARK  206  A    between atoms: _496  and  _498
REMARK  207  A    between atoms: _498  and  _499
REMARK  208  A    between atoms: _498  and  _501
REMARK  209  A    between atoms: _501  and  _502
REMARK  210  A    between atoms: _502  and  _503
REMARK  211  A    between atoms: _503  and  _504
REMARK  212  A    between atoms: _513  and  _515
REMARK  213  A    between atoms: _515  and  _516
REMARK  214  A    between atoms: _515  and  _518
REMARK  215  A    between atoms: _518  and  _519
REMARK  216  A    between atoms: _519  and  _520
REMARK  217  A    between atoms: _523  and  _525
REMARK  218  A    between atoms: _525  and  _526
REMARK  219  A    between atoms: _525  and  _528
REMARK  220  A    between atoms: _528  and  _529
REMARK  221  A    between atoms: _529  and  _530
REMARK  222  A    between atoms: _530  and  _531
REMARK  223  A    between atoms: _540  and  _542
REMARK  224  A    between atoms: _542  and  _543
REMARK  225  A    between atoms: _542  and  _545
REMARK  226  A    between atoms: _548  and  _550
REMARK  227  A    between atoms: _550  and  _551
REMARK  228  A    between atoms: _550  and  _553
REMARK  229  A    between atoms: _553  and  _554
REMARK  230  A    between atoms: _554  and  _555
REMARK  231  A    between atoms: _558  and  _560
REMARK  232  A    between atoms: _560  and  _561
REMARK  233  A    between atoms: _560  and  _563
REMARK  234  A    between atoms: _563  and  _564
REMARK  235  A    between atoms: _567  and  _569
REMARK  236  A    between atoms: _569  and  _570
REMARK  237  A    between atoms: _569  and  _572
REMARK  238  A    between atoms: _572  and  _573
REMARK  239  A    between atoms: _573  and  _574
REMARK  240  A    between atoms: _577  and  _579
REMARK  241  A    between atoms: _579  and  _580
REMARK  242  A    between atoms: _579  and  _582
REMARK  243  A    between atoms: _582  and  _583
REMARK  244  A    between atoms: _583  and  _584
REMARK  245  A    between atoms: _589  and  _591
REMARK  246  A    between atoms: _591  and  _592
REMARK  247  A    between atoms: _594  and  _596
REMARK  248  A    between atoms: _596  and  _597
REMARK  249  A    between atoms: _596  and  _599
REMARK  250  A    between atoms: _599  and  _600
REMARK  251  A    between atoms: _600  and  _601
REMARK  252  A    between atoms: _606  and  _608
REMARK  253  A    between atoms: _608  and  _609
REMARK  254  A    between atoms: _608  and  _611
REMARK  255  A    between atoms: _611  and  _612
REMARK  256  A    between atoms: _615  and  _617
REMARK  257  A    between atoms: _617  and  _618
REMARK  258  A    between atoms: _617  and  _620
REMARK  259  A    between atoms: _620  and  _621
REMARK  260  A    between atoms: _627  and  _629
REMARK  261  A    between atoms: _629  and  _630
REMARK  262  A    between atoms: _632  and  _634
REMARK  263  A    between atoms: _634  and  _635
REMARK  264  A    between atoms: _634  and  _637
REMARK  265  A    between atoms: _637  and  _638
REMARK  266  A    between atoms: _638  and  _639
REMARK  267  A    between atoms: _643  and  _644
REMARK                            x       y       z     vdW  Elec       q    Type
REMARK                         _______ _______ _______ _____ _____    ______ ____
ROOT
ATOM      1  O   HOH     1      30.616  32.811  -4.339  0.00  0.00    +0.000 OA
ENDROOT
TORSDOF 0
REMARK  Name = ../refined-set-2016/3pju/3pju_pocket.pdb
REMARK  267 active torsions:
REMARK  status: ('A' for Active; 'I' for Inactive)
REMARK    1  A    between atoms: _1  and  _3
REMARK    2  A    between atoms: _3  and  _4
REMARK    3  A    between atoms: _3  and  _6
REMARK    4  A    between atoms: _6  and  _7
REMARK    5  A    between atoms: _13  and  _15
REMARK    6  A    between atoms: _15  and  _16
REMARK    7  A    between atoms: _15  and  _18
REMARK    8  A    between atoms: _18  and  _19
REMARK    9  A    between atoms: _19  and  _20
REMARK   10  A    between atoms: _23  and  _25
REMARK   11  A    between atoms: _25  and  _26
REMARK   12  A    between atoms: _25  and  _28
REMARK   13  A    between atoms: _28  and  _29
REMARK   14  A    between atoms: _32  and  _34
REMARK   15  A    between atoms: _34  and  _35
REMARK   16  A    between atoms: _34  and  _37
REMARK   17  A    between atoms: _37  and  _38
REMARK   18  A    between atoms: _44  and  _46
REMARK   19  A    between atoms: _46  and  _47
REMARK   20  A    between atoms: _46  and  _49
REMARK   21  A    between atoms: _49  and  _50
REMARK   22  A    between atoms: _50  and  _51
REMARK   23  A    between atoms: _56  and  _58
REMARK   24  A    between atoms: _58  and  _59
REMARK   25  A    between atoms: _58  and  _61
REMARK   26  A    between atoms: _64  and  _66
REMARK   27  A    between atoms: _66  and  _67
REMARK   28  A    between atoms: _66  and  _69
REMARK   29  A    between atoms: _69  and  _70
REMARK   30  A    between atoms: _70  and  _71
REMARK   31  A    between atoms: _71  and  _72
REMARK   32  A    between atoms: _72  and  _73
REMARK   33  A    between atoms: _77  and  _79
REMARK   34  A    between atoms: _79  and  _80
REMARK   35  A    between atoms: _79  and  _82
REMARK   36  A    between atoms: _85  and  _87
REMARK   37  A    between atoms: _87  and  _88
REMARK   38  A    between atoms: _87  and  _90
REMARK   39  A    between atoms: _90  and  _91
REMARK   40  A    between atoms: _94  and  _96
REMARK   41  A    between atoms: _96  and  _97
REMARK   42  A    between atoms: _96  and  _99
REMARK   43  A    between atoms: _99  and  _100
REMARK   44  A    between atoms: _102  and  _104
REMARK   45  A    between atoms: _104  and  _105
REMARK   46  A    between atoms: _104  and  _107
REMARK   47  A    between atoms: _107  and  _108
REMARK   48  A    between atoms: _108  and  _109
REMARK   49  A    between atoms: _109  and  _110
REMARK   50  A    between atoms: _119  and  _121
REMARK   51  A    between atoms: _121  and  _122
REMARK   52  A    between atoms: _121  and  _124
REMARK   53  A    between atoms: _124  and  _125
REMARK   54  A    between atoms: _129  and  _130
REMARK   55  A    between atoms: _135  and  _137
REMARK   56  A    between atoms: _137  and  _138
REMARK   57  A    between atoms: _141  and  _143
REMARK   58  A    between atoms: _143  and  _144
REMARK   59  A    between atoms: _146  and  _148
REMARK   60  A    between atoms: _148  and  _149
REMARK   61  A    between atoms: _148  and  _151
REMARK   62  A    between atoms: _151  and  _152
REMARK   63  A    between atoms: _152  and  _153
REMARK   64  A    between atoms: _153  and  _154
REMARK   65  A    between atoms: _163  and  _165
REMARK   66  A    between atoms: _165  and  _166
REMARK   67  A    between atoms: _165  and  _168
REMARK   68  A    between atoms: _168  and  _169
REMARK   69  A    between atoms: _175  and  _177
REMARK   70  A    between atoms: _177  and  _178
REMARK   71  A    between atoms: _177  and  _180
REMARK   72  A    between atoms: _180  and  _181
REMARK   73  A    between atoms: _185  and  _186
REMARK   74  A    between atoms: _191  and  _193
REMARK   75  A    between atoms: _193  and  _194
REMARK   76  A    between atoms: _193  and  _196
REMARK   77  A    between atoms: _196  and  _197
REMARK   78  A    between atoms: _200  and  _202
REMARK   79  A    between atoms: _202  and  _203
REMARK   80  A    between atoms: _202  and  _205
REMARK   81  A    between atoms: _205  and  _206
REMARK   82  A    between atoms: _206  and  _207
REMARK   83  A    between atoms: _210  and  _212
REMARK   84  A    between atoms: _212  and  _213
REMARK   85  A    between atoms: _212  and  _215
REMARK   86  A    between atoms: _215  and  _216
REMARK   87  A    between atoms: _219  and  _221
REMARK   88  A    between atoms: _221  and  _222
REMARK   89  A    between atoms: _225  and  _227
REMARK   90  A    between atoms: _227  and  _228
REMARK   91  A    between atoms: _227  and  _230
REMARK   92  A    between atoms: _230  and  _231
REMARK   93  A    between atoms: _234  and  _236
REMARK   94  A    between atoms: _236  and  _237
REMARK   95  A    between atoms: _236  and  _239
REMARK   96  A    between atoms: _239  and  _240
REMARK   97  A    between atoms: _243  and  _245
REMARK   98  A    between atoms: _245  and  _246
REMARK   99  A    between atoms: _245  and  _248
REMARK  100  A    between atoms: _248  and  _249
REMARK  101  A    between atoms: _249  and  _250
REMARK  102  A    between atoms: _250  and  _251
REMARK  103  A    between atoms: _260  and  _262
REMARK  104  A    between atoms: _262  and  _263
REMARK  105  A    between atoms: _262  and  _265
REMARK  106  A    between atoms: _265  and  _266
REMARK  107  A    between atoms: _269  and  _271
REMARK  108  A    between atoms: _271  and  _272
REMARK  109  A    between atoms: _271  and  _274
REMARK  110  A    between atoms: _274  and  _275
REMARK  111  A    between atoms: _275  and  _276
REMARK  112  A    between atoms: _278  and  _280
REMARK  113  A    between atoms: _280  and  _281
REMARK  114  A    between atoms: _280  and  _283
REMARK  115  A    between atoms: _283  and  _284
REMARK  116  A    between atoms: _287  and  _289
REMARK  117  A    between atoms: _289  and  _290
REMARK  118  A    between atoms: _289  and  _292
REMARK  119  A    between atoms: _295  and  _297
REMARK  120  A    between atoms: _297  and  _298
REMARK  121  A    between atoms: _301  and  _303
REMARK  122  A    between atoms: _303  and  _304
REMARK  123  A    between atoms: _303  and  _306
REMARK  124  A    between atoms: _306  and  _307
REMARK  125  A    between atoms: _310  and  _312
REMARK  126  A    between atoms: _312  and  _313
REMARK  127  A    between atoms: _312  and  _315
REMARK  128  A    between atoms: _315  and  _316
REMARK  129  A    between atoms: _321  and  _323
REMARK  130  A    between atoms: _323  and  _324
REMARK  131  A    between atoms: _323  and  _326
REMARK  132  A    between atoms: _326  and  _327
REMARK  133  A    between atoms: _330  and  _332
REMARK  134  A    between atoms: _332  and  _333
REMARK  135  A    between atoms: _332  and  _335
REMARK  136  A    between atoms: _335  and  _336
REMARK  137  A    between atoms: _338  and  _340
REMARK  138  A    between atoms: _340  and  _341
REMARK  139  A    between atoms: _340  and  _343
REMARK  140  A    between atoms: _343  and  _344
REMARK  141  A    between atoms: _346  and  _348
REMARK  142  A    between atoms: _348  and  _349
REMARK  143  A    between atoms: _352  and  _354
REMARK  144  A    between atoms: _354  and  _355
REMARK  145  A    between atoms: _354  and  _357
REMARK  146  A    between atoms: _357  and  _358
REMARK  147  A    between atoms: _361  and  _363
REMARK  148  A    between atoms: _363  and  _364
REMARK  149  A    between atoms: _363  and  _366
REMARK  150  A    between atoms: _366  and  _367
REMARK  151  A    between atoms: _367  and  _368
REMARK  152  A    between atoms: _371  and  _373
REMARK  153  A    between atoms: _373  and  _374
REMARK  154  A    between atoms: _373  and  _376
REMARK  155  A    between atoms: _376  and  _377
REMARK  156  A    between atoms: _380  and  _382
REMARK  157  A    between atoms: _382  and  _383
REMARK  158  A    between atoms: _385  and  _387
REMARK  159  A    between atoms: _387  and  _388
REMARK  160  A    between atoms: _387  and  _390
REMARK  161  A    between atoms: _390  and  _391
REMARK  162  A    between atoms: _391  and  _392
REMARK  163  A    between atoms: _395  and  _397
REMARK  164  A    between atoms: _397  and  _398
REMARK  165  A    between atoms: _397  and  _400
REMARK  166  A    between atoms: _400  and  _401
REMARK  167  A    between atoms: _401  and  _402
REMARK  168  A    between atoms: _405  and  _407
REMARK  169  A    between atoms: _407  and  _408
REMARK  170  A    between atoms: _407  and  _410
REMARK  171  A    between atoms: _410  and  _411
REMARK  172  A    between atoms: _411  and  _412
REMARK  173  A    between atoms: _417  and  _419
REMARK  174  A    between atoms: _419  and  _420
REMARK  175  A    between atoms: _419  and  _422
REMARK  176  A    between atoms: _422  and  _423
REMARK  177  A    between atoms: _423  and  _424
REMARK  178  A    between atoms: _429  and  _431
REMARK  179  A    between atoms: _431  and  _432
REMARK  180  A    between atoms: _431  and  _434
REMARK  181  A    between atoms: _434  and  _435
REMARK  182  A    between atoms: _435  and  _436
REMARK  183  A    between atoms: _436  and  _437
REMARK  184  A    between atoms: _446  and  _448
REMARK  185  A    between atoms: _448  and  _449
REMARK  186  A    between atoms: _448  and  _451
REMARK  187  A    between atoms: _451  and  _452
REMARK  188  A    between atoms: _457  and  _458
REMARK  189  A    between atoms: _460  and  _462
REMARK  190  A    between atoms: _462  and  _463
REMARK  191  A    between atoms: _462  and  _465
REMARK  192  A    between atoms: _465  and  _466
REMARK  193  A    between atoms: _466  and  _467
REMARK  194  A    between atoms: _467  and  _468
REMARK  195  A    between atoms: _468  and  _469
REMARK  196  A    between atoms: _473  and  _475
REMARK  197  A    between atoms: _475  and  _476
REMARK  198  A    between atoms: _475  and  _478
REMARK  199  A    between atoms: _478  and  _479
REMARK  200  A    between atoms: _482  and  _484
REMARK  201  A    between atoms: _484  and  _485
REMARK  202  A    between atoms: _487  and  _489
REMARK  203  A    between atoms: _489  and  _490
REMARK  204  A    between atoms: _489  and  _492
REMARK  205  A    between atoms: _492  and  _493
REMARK  206  A    between atoms: _496  and  _498
REMARK  207  A    between atoms: _498  and  _499
REMARK  208  A    between atoms: _498  and  _501
REMARK  209  A    between atoms: _501  and  _502
REMARK  210  A    between atoms: _502  and  _503
REMARK  211  A    between atoms: _503  and  _504
REMARK  212  A    between atoms: _513  and  _515
REMARK  213  A    between atoms: _515  and  _516
REMARK  214  A    between atoms: _515  and  _518
REMARK  215  A    between atoms: _518  and  _519
REMARK  216  A    between atoms: _519  and  _520
REMARK  217  A    between atoms: _523  and  _525
REMARK  218  A    between atoms: _525  and  _526
REMARK  219  A    between atoms: _525  and  _528
REMARK  220  A    between atoms: _528  and  _529
REMARK  221  A    between atoms: _529  and  _530
REMARK  222  A    between atoms: _530  and  _531
REMARK  223  A    between atoms: _540  and  _542
REMARK  224  A    between atoms: _542  and  _543
REMARK  225  A    between atoms: _542  and  _545
REMARK  226  A    between atoms: _548  and  _550
REMARK  227  A    between atoms: _550  and  _551
REMARK  228  A    between atoms: _550  and  _553
REMARK  229  A    between atoms: _553  and  _554
REMARK  230  A    between atoms: _554  and  _555
REMARK  231  A    between atoms: _558  and  _560
REMARK  232  A    between atoms: _560  and  _561
REMARK  233  A    between atoms: _560  and  _563
REMARK  234  A    between atoms: _563  and  _564
REMARK  235  A    between atoms: _567  and  _569
REMARK  236  A    between atoms: _569  and  _570
REMARK  237  A    between atoms: _569  and  _572
REMARK  238  A    between atoms: _572  and  _573
REMARK  239  A    between atoms: _573  and  _574
REMARK  240  A    between atoms: _577  and  _579
REMARK  241  A    between atoms: _579  and  _580
REMARK  242  A    between atoms: _579  and  _582
REMARK  243  A    between atoms: _582  and  _583
REMARK  244  A    between atoms: _583  and  _584
REMARK  245  A    between atoms: _589  and  _591
REMARK  246  A    between atoms: _591  and  _592
REMARK  247  A    between atoms: _594  and  _596
REMARK  248  A    between atoms: _596  and  _597
REMARK  249  A    between atoms: _596  and  _599
REMARK  250  A    between atoms: _599  and  _600
REMARK  251  A    between atoms: _600  and  _601
REMARK  252  A    between atoms: _606  and  _608
REMARK  253  A    between atoms: _608  and  _609
REMARK  254  A    between atoms: _608  and  _611
REMARK  255  A    between atoms: _611  and  _612
REMARK  256  A    between atoms: _615  and  _617
REMARK  257  A    between atoms: _617  and  _618
REMARK  258  A    between atoms: _617  and  _620
REMARK  259  A    between atoms: _620  and  _621
REMARK  260  A    between atoms: _627  and  _629
REMARK  261  A    between atoms: _629  and  _630
REMARK  262  A    between atoms: _632  and  _634
REMARK  263  A    between atoms: _634  and  _635
REMARK  264  A    between atoms: _634  and  _637
REMARK  265  A    between atoms: _637  and  _638
REMARK  266  A    between atoms: _638  and  _639
REMARK  267  A    between atoms: _643  and  _644
REMARK                            x       y       z     vdW  Elec       q    Type
REMARK                         _______ _______ _______ _____ _____    ______ ____
ROOT
ATOM      1  O   HOH     1      28.330  31.726  -1.732  0.00  0.00    +0.000 OA
ENDROOT
TORSDOF 0
REMARK  Name = ../refined-set-2016/3pju/3pju_pocket.pdb
REMARK  267 active torsions:
REMARK  status: ('A' for Active; 'I' for Inactive)
REMARK    1  A    between atoms: _1  and  _3
REMARK    2  A    between atoms: _3  and  _4
REMARK    3  A    between atoms: _3  and  _6
REMARK    4  A    between atoms: _6  and  _7
REMARK    5  A    between atoms: _13  and  _15
REMARK    6  A    between atoms: _15  and  _16
REMARK    7  A    between atoms: _15  and  _18
REMARK    8  A    between atoms: _18  and  _19
REMARK    9  A    between atoms: _19  and  _20
REMARK   10  A    between atoms: _23  and  _25
REMARK   11  A    between atoms: _25  and  _26
REMARK   12  A    between atoms: _25  and  _28
REMARK   13  A    between atoms: _28  and  _29
REMARK   14  A    between atoms: _32  and  _34
REMARK   15  A    between atoms: _34  and  _35
REMARK   16  A    between atoms: _34  and  _37
REMARK   17  A    between atoms: _37  and  _38
REMARK   18  A    between atoms: _44  and  _46
REMARK   19  A    between atoms: _46  and  _47
REMARK   20  A    between atoms: _46  and  _49
REMARK   21  A    between atoms: _49  and  _50
REMARK   22  A    between atoms: _50  and  _51
REMARK   23  A    between atoms: _56  and  _58
REMARK   24  A    between atoms: _58  and  _59
REMARK   25  A    between atoms: _58  and  _61
REMARK   26  A    between atoms: _64  and  _66
REMARK   27  A    between atoms: _66  and  _67
REMARK   28  A    between atoms: _66  and  _69
REMARK   29  A    between atoms: _69  and  _70
REMARK   30  A    between atoms: _70  and  _71
REMARK   31  A    between atoms: _71  and  _72
REMARK   32  A    between atoms: _72  and  _73
REMARK   33  A    between atoms: _77  and  _79
REMARK   34  A    between atoms: _79  and  _80
REMARK   35  A    between atoms: _79  and  _82
REMARK   36  A    between atoms: _85  and  _87
REMARK   37  A    between atoms: _87  and  _88
REMARK   38  A    between atoms: _87  and  _90
REMARK   39  A    between atoms: _90  and  _91
REMARK   40  A    between atoms: _94  and  _96
REMARK   41  A    between atoms: _96  and  _97
REMARK   42  A    between atoms: _96  and  _99
REMARK   43  A    between atoms: _99  and  _100
REMARK   44  A    between atoms: _102  and  _104
REMARK   45  A    between atoms: _104  and  _105
REMARK   46  A    between atoms: _104  and  _107
REMARK   47  A    between atoms: _107  and  _108
REMARK   48  A    between atoms: _108  and  _109
REMARK   49  A    between atoms: _109  and  _110
REMARK   50  A    between atoms: _119  and  _121
REMARK   51  A    between atoms: _121  and  _122
REMARK   52  A    between atoms: _121  and  _124
REMARK   53  A    between atoms: _124  and  _125
REMARK   54  A    between atoms: _129  and  _130
REMARK   55  A    between atoms: _135  and  _137
REMARK   56  A    between atoms: _137  and  _138
REMARK   57  A    between atoms: _141  and  _143
REMARK   58  A    between atoms: _143  and  _144
REMARK   59  A    between atoms: _146  and  _148
REMARK   60  A    between atoms: _148  and  _149
REMARK   61  A    between atoms: _148  and  _151
REMARK   62  A    between atoms: _151  and  _152
REMARK   63  A    between atoms: _152  and  _153
REMARK   64  A    between atoms: _153  and  _154
REMARK   65  A    between atoms: _163  and  _165
REMARK   66  A    between atoms: _165  and  _166
REMARK   67  A    between atoms: _165  and  _168
REMARK   68  A    between atoms: _168  and  _169
REMARK   69  A    between atoms: _175  and  _177
REMARK   70  A    between atoms: _177  and  _178
REMARK   71  A    between atoms: _177  and  _180
REMARK   72  A    between atoms: _180  and  _181
REMARK   73  A    between atoms: _185  and  _186
REMARK   74  A    between atoms: _191  and  _193
REMARK   75  A    between atoms: _193  and  _194
REMARK   76  A    between atoms: _193  and  _196
REMARK   77  A    between atoms: _196  and  _197
REMARK   78  A    between atoms: _200  and  _202
REMARK   79  A    between atoms: _202  and  _203
REMARK   80  A    between atoms: _202  and  _205
REMARK   81  A    between atoms: _205  and  _206
REMARK   82  A    between atoms: _206  and  _207
REMARK   83  A    between atoms: _210  and  _212
REMARK   84  A    between atoms: _212  and  _213
REMARK   85  A    between atoms: _212  and  _215
REMARK   86  A    between atoms: _215  and  _216
REMARK   87  A    between atoms: _219  and  _221
REMARK   88  A    between atoms: _221  and  _222
REMARK   89  A    between atoms: _225  and  _227
REMARK   90  A    between atoms: _227  and  _228
REMARK   91  A    between atoms: _227  and  _230
REMARK   92  A    between atoms: _230  and  _231
REMARK   93  A    between atoms: _234  and  _236
REMARK   94  A    between atoms: _236  and  _237
REMARK   95  A    between atoms: _236  and  _239
REMARK   96  A    between atoms: _239  and  _240
REMARK   97  A    between atoms: _243  and  _245
REMARK   98  A    between atoms: _245  and  _246
REMARK   99  A    between atoms: _245  and  _248
REMARK  100  A    between atoms: _248  and  _249
REMARK  101  A    between atoms: _249  and  _250
REMARK  102  A    between atoms: _250  and  _251
REMARK  103  A    between atoms: _260  and  _262
REMARK  104  A    between atoms: _262  and  _263
REMARK  105  A    between atoms: _262  and  _265
REMARK  106  A    between atoms: _265  and  _266
REMARK  107  A    between atoms: _269  and  _271
REMARK  108  A    between atoms: _271  and  _272
REMARK  109  A    between atoms: _271  and  _274
REMARK  110  A    between atoms: _274  and  _275
REMARK  111  A    between atoms: _275  and  _276
REMARK  112  A    between atoms: _278  and  _280
REMARK  113  A    between atoms: _280  and  _281
REMARK  114  A    between atoms: _280  and  _283
REMARK  115  A    between atoms: _283  and  _284
REMARK  116  A    between atoms: _287  and  _289
REMARK  117  A    between atoms: _289  and  _290
REMARK  118  A    between atoms: _289  and  _292
REMARK  119  A    between atoms: _295  and  _297
REMARK  120  A    between atoms: _297  and  _298
REMARK  121  A    between atoms: _301  and  _303
REMARK  122  A    between atoms: _303  and  _304
REMARK  123  A    between atoms: _303  and  _306
REMARK  124  A    between atoms: _306  and  _307
REMARK  125  A    between atoms: _310  and  _312
REMARK  126  A    between atoms: _312  and  _313
REMARK  127  A    between atoms: _312  and  _315
REMARK  128  A    between atoms: _315  and  _316
REMARK  129  A    between atoms: _321  and  _323
REMARK  130  A    between atoms: _323  and  _324
REMARK  131  A    between atoms: _323  and  _326
REMARK  132  A    between atoms: _326  and  _327
REMARK  133  A    between atoms: _330  and  _332
REMARK  134  A    between atoms: _332  and  _333
REMARK  135  A    between atoms: _332  and  _335
REMARK  136  A    between atoms: _335  and  _336
REMARK  137  A    between atoms: _338  and  _340
REMARK  138  A    between atoms: _340  and  _341
REMARK  139  A    between atoms: _340  and  _343
REMARK  140  A    between atoms: _343  and  _344
REMARK  141  A    between atoms: _346  and  _348
REMARK  142  A    between atoms: _348  and  _349
REMARK  143  A    between atoms: _352  and  _354
REMARK  144  A    between atoms: _354  and  _355
REMARK  145  A    between atoms: _354  and  _357
REMARK  146  A    between atoms: _357  and  _358
REMARK  147  A    between atoms: _361  and  _363
REMARK  148  A    between atoms: _363  and  _364
REMARK  149  A    between atoms: _363  and  _366
REMARK  150  A    between atoms: _366  and  _367
REMARK  151  A    between atoms: _367  and  _368
REMARK  152  A    between atoms: _371  and  _373
REMARK  153  A    between atoms: _373  and  _374
REMARK  154  A    between atoms: _373  and  _376
REMARK  155  A    between atoms: _376  and  _377
REMARK  156  A    between atoms: _380  and  _382
REMARK  157  A    between atoms: _382  and  _383
REMARK  158  A    between atoms: _385  and  _387
REMARK  159  A    between atoms: _387  and  _388
REMARK  160  A    between atoms: _387  and  _390
REMARK  161  A    between atoms: _390  and  _391
REMARK  162  A    between atoms: _391  and  _392
REMARK  163  A    between atoms: _395  and  _397
REMARK  164  A    between atoms: _397  and  _398
REMARK  165  A    between atoms: _397  and  _400
REMARK  166  A    between atoms: _400  and  _401
REMARK  167  A    between atoms: _401  and  _402
REMARK  168  A    between atoms: _405  and  _407
REMARK  169  A    between atoms: _407  and  _408
REMARK  170  A    between atoms: _407  and  _410
REMARK  171  A    between atoms: _410  and  _411
REMARK  172  A    between atoms: _411  and  _412
REMARK  173  A    between atoms: _417  and  _419
REMARK  174  A    between atoms: _419  and  _420
REMARK  175  A    between atoms: _419  and  _422
REMARK  176  A    between atoms: _422  and  _423
REMARK  177  A    between atoms: _423  and  _424
REMARK  178  A    between atoms: _429  and  _431
REMARK  179  A    between atoms: _431  and  _432
REMARK  180  A    between atoms: _431  and  _434
REMARK  181  A    between atoms: _434  and  _435
REMARK  182  A    between atoms: _435  and  _436
REMARK  183  A    between atoms: _436  and  _437
REMARK  184  A    between atoms: _446  and  _448
REMARK  185  A    between atoms: _448  and  _449
REMARK  186  A    between atoms: _448  and  _451
REMARK  187  A    between atoms: _451  and  _452
REMARK  188  A    between atoms: _457  and  _458
REMARK  189  A    between atoms: _460  and  _462
REMARK  190  A    between atoms: _462  and  _463
REMARK  191  A    between atoms: _462  and  _465
REMARK  192  A    between atoms: _465  and  _466
REMARK  193  A    between atoms: _466  and  _467
REMARK  194  A    between atoms: _467  and  _468
REMARK  195  A    between atoms: _468  and  _469
REMARK  196  A    between atoms: _473  and  _475
REMARK  197  A    between atoms: _475  and  _476
REMARK  198  A    between atoms: _475  and  _478
REMARK  199  A    between atoms: _478  and  _479
REMARK  200  A    between atoms: _482  and  _484
REMARK  201  A    between atoms: _484  and  _485
REMARK  202  A    between atoms: _487  and  _489
REMARK  203  A    between atoms: _489  and  _490
REMARK  204  A    between atoms: _489  and  _492
REMARK  205  A    between atoms: _492  and  _493
REMARK  206  A    between atoms: _496  and  _498
REMARK  207  A    between atoms: _498  and  _499
REMARK  208  A    between atoms: _498  and  _501
REMARK  209  A    between atoms: _501  and  _502
REMARK  210  A    between atoms: _502  and  _503
REMARK  211  A    between atoms: _503  and  _504
REMARK  212  A    between atoms: _513  and  _515
REMARK  213  A    between atoms: _515  and  _516
REMARK  214  A    between atoms: _515  and  _518
REMARK  215  A    between atoms: _518  and  _519
REMARK  216  A    between atoms: _519  and  _520
REMARK  217  A    between atoms: _523  and  _525
REMARK  218  A    between atoms: _525  and  _526
REMARK  219  A    between atoms: _525  and  _528
REMARK  220  A    between atoms: _528  and  _529
REMARK  221  A    between atoms: _529  and  _530
REMARK  222  A    between atoms: _530  and  _531
REMARK  223  A    between atoms: _540  and  _542
REMARK  224  A    between atoms: _542  and  _543
REMARK  225  A    between atoms: _542  and  _545
REMARK  226  A    between atoms: _548  and  _550
REMARK  227  A    between atoms: _550  and  _551
REMARK  228  A    between atoms: _550  and  _553
REMARK  229  A    between atoms: _553  and  _554
REMARK  230  A    between atoms: _554  and  _555
REMARK  231  A    between atoms: _558  and  _560
REMARK  232  A    between atoms: _560  and  _561
REMARK  233  A    between atoms: _560  and  _563
REMARK  234  A    between atoms: _563  and  _564
REMARK  235  A    between atoms: _567  and  _569
REMARK  236  A    between atoms: _569  and  _570
REMARK  237  A    between atoms: _569  and  _572
REMARK  238  A    between atoms: _572  and  _573
REMARK  239  A    between atoms: _573  and  _574
REMARK  240  A    between atoms: _577  and  _579
REMARK  241  A    between atoms: _579  and  _580
REMARK  242  A    between atoms: _579  and  _582
REMARK  243  A    between atoms: _582  and  _583
REMARK  244  A    between atoms: _583  and  _584
REMARK  245  A    between atoms: _589  and  _591
REMARK  246  A    between atoms: _591  and  _592
REMARK  247  A    between atoms: _594  and  _596
REMARK  248  A    between atoms: _596  and  _597
REMARK  249  A    between atoms: _596  and  _599
REMARK  250  A    between atoms: _599  and  _600
REMARK  251  A    between atoms: _600  and  _601
REMARK  252  A    between atoms: _606  and  _608
REMARK  253  A    between atoms: _608  and  _609
REMARK  254  A    between atoms: _608  and  _611
REMARK  255  A    between atoms: _611  and  _612
REMARK  256  A    between atoms: _615  and  _617
REMARK  257  A    between atoms: _617  and  _618
REMARK  258  A    between atoms: _617  and  _620
REMARK  259  A    between atoms: _620  and  _621
REMARK  260  A    between atoms: _627  and  _629
REMARK  261  A    between atoms: _629  and  _630
REMARK  262  A    between atoms: _632  and  _634
REMARK  263  A    between atoms: _634  and  _635
REMARK  264  A    between atoms: _634  and  _637
REMARK  265  A    between atoms: _637  and  _638
REMARK  266  A    between atoms: _638  and  _639
REMARK  267  A    between atoms: _643  and  _644
REMARK                            x       y       z     vdW  Elec       q    Type
REMARK                         _______ _______ _______ _____ _____    ______ ____
ROOT
ATOM      1  O   HOH     1      31.141  32.552  10.886  0.00  0.00    +0.000 OA
ENDROOT
TORSDOF 0
REMARK  Name = ../refined-set-2016/3pju/3pju_pocket.pdb
REMARK  267 active torsions:
REMARK  status: ('A' for Active; 'I' for Inactive)
REMARK    1  A    between atoms: _1  and  _3
REMARK    2  A    between atoms: _3  and  _4
REMARK    3  A    between atoms: _3  and  _6
REMARK    4  A    between atoms: _6  and  _7
REMARK    5  A    between atoms: _13  and  _15
REMARK    6  A    between atoms: _15  and  _16
REMARK    7  A    between atoms: _15  and  _18
REMARK    8  A    between atoms: _18  and  _19
REMARK    9  A    between atoms: _19  and  _20
REMARK   10  A    between atoms: _23  and  _25
REMARK   11  A    between atoms: _25  and  _26
REMARK   12  A    between atoms: _25  and  _28
REMARK   13  A    between atoms: _28  and  _29
REMARK   14  A    between atoms: _32  and  _34
REMARK   15  A    between atoms: _34  and  _35
REMARK   16  A    between atoms: _34  and  _37
REMARK   17  A    between atoms: _37  and  _38
REMARK   18  A    between atoms: _44  and  _46
REMARK   19  A    between atoms: _46  and  _47
REMARK   20  A    between atoms: _46  and  _49
REMARK   21  A    between atoms: _49  and  _50
REMARK   22  A    between atoms: _50  and  _51
REMARK   23  A    between atoms: _56  and  _58
REMARK   24  A    between atoms: _58  and  _59
REMARK   25  A    between atoms: _58  and  _61
REMARK   26  A    between atoms: _64  and  _66
REMARK   27  A    between atoms: _66  and  _67
REMARK   28  A    between atoms: _66  and  _69
REMARK   29  A    between atoms: _69  and  _70
REMARK   30  A    between atoms: _70  and  _71
REMARK   31  A    between atoms: _71  and  _72
REMARK   32  A    between atoms: _72  and  _73
REMARK   33  A    between atoms: _77  and  _79
REMARK   34  A    between atoms: _79  and  _80
REMARK   35  A    between atoms: _79  and  _82
REMARK   36  A    between atoms: _85  and  _87
REMARK   37  A    between atoms: _87  and  _88
REMARK   38  A    between atoms: _87  and  _90
REMARK   39  A    between atoms: _90  and  _91
REMARK   40  A    between atoms: _94  and  _96
REMARK   41  A    between atoms: _96  and  _97
REMARK   42  A    between atoms: _96  and  _99
REMARK   43  A    between atoms: _99  and  _100
REMARK   44  A    between atoms: _102  and  _104
REMARK   45  A    between atoms: _104  and  _105
REMARK   46  A    between atoms: _104  and  _107
REMARK   47  A    between atoms: _107  and  _108
REMARK   48  A    between atoms: _108  and  _109
REMARK   49  A    between atoms: _109  and  _110
REMARK   50  A    between atoms: _119  and  _121
REMARK   51  A    between atoms: _121  and  _122
REMARK   52  A    between atoms: _121  and  _124
REMARK   53  A    between atoms: _124  and  _125
REMARK   54  A    between atoms: _129  and  _130
REMARK   55  A    between atoms: _135  and  _137
REMARK   56  A    between atoms: _137  and  _138
REMARK   57  A    between atoms: _141  and  _143
REMARK   58  A    between atoms: _143  and  _144
REMARK   59  A    between atoms: _146  and  _148
REMARK   60  A    between atoms: _148  and  _149
REMARK   61  A    between atoms: _148  and  _151
REMARK   62  A    between atoms: _151  and  _152
REMARK   63  A    between atoms: _152  and  _153
REMARK   64  A    between atoms: _153  and  _154
REMARK   65  A    between atoms: _163  and  _165
REMARK   66  A    between atoms: _165  and  _166
REMARK   67  A    between atoms: _165  and  _168
REMARK   68  A    between atoms: _168  and  _169
REMARK   69  A    between atoms: _175  and  _177
REMARK   70  A    between atoms: _177  and  _178
REMARK   71  A    between atoms: _177  and  _180
REMARK   72  A    between atoms: _180  and  _181
REMARK   73  A    between atoms: _185  and  _186
REMARK   74  A    between atoms: _191  and  _193
REMARK   75  A    between atoms: _193  and  _194
REMARK   76  A    between atoms: _193  and  _196
REMARK   77  A    between atoms: _196  and  _197
REMARK   78  A    between atoms: _200  and  _202
REMARK   79  A    between atoms: _202  and  _203
REMARK   80  A    between atoms: _202  and  _205
REMARK   81  A    between atoms: _205  and  _206
REMARK   82  A    between atoms: _206  and  _207
REMARK   83  A    between atoms: _210  and  _212
REMARK   84  A    between atoms: _212  and  _213
REMARK   85  A    between atoms: _212  and  _215
REMARK   86  A    between atoms: _215  and  _216
REMARK   87  A    between atoms: _219  and  _221
REMARK   88  A    between atoms: _221  and  _222
REMARK   89  A    between atoms: _225  and  _227
REMARK   90  A    between atoms: _227  and  _228
REMARK   91  A    between atoms: _227  and  _230
REMARK   92  A    between atoms: _230  and  _231
REMARK   93  A    between atoms: _234  and  _236
REMARK   94  A    between atoms: _236  and  _237
REMARK   95  A    between atoms: _236  and  _239
REMARK   96  A    between atoms: _239  and  _240
REMARK   97  A    between atoms: _243  and  _245
REMARK   98  A    between atoms: _245  and  _246
REMARK   99  A    between atoms: _245  and  _248
REMARK  100  A    between atoms: _248  and  _249
REMARK  101  A    between atoms: _249  and  _250
REMARK  102  A    between atoms: _250  and  _251
REMARK  103  A    between atoms: _260  and  _262
REMARK  104  A    between atoms: _262  and  _263
REMARK  105  A    between atoms: _262  and  _265
REMARK  106  A    between atoms: _265  and  _266
REMARK  107  A    between atoms: _269  and  _271
REMARK  108  A    between atoms: _271  and  _272
REMARK  109  A    between atoms: _271  and  _274
REMARK  110  A    between atoms: _274  and  _275
REMARK  111  A    between atoms: _275  and  _276
REMARK  112  A    between atoms: _278  and  _280
REMARK  113  A    between atoms: _280  and  _281
REMARK  114  A    between atoms: _280  and  _283
REMARK  115  A    between atoms: _283  and  _284
REMARK  116  A    between atoms: _287  and  _289
REMARK  117  A    between atoms: _289  and  _290
REMARK  118  A    between atoms: _289  and  _292
REMARK  119  A    between atoms: _295  and  _297
REMARK  120  A    between atoms: _297  and  _298
REMARK  121  A    between atoms: _301  and  _303
REMARK  122  A    between atoms: _303  and  _304
REMARK  123  A    between atoms: _303  and  _306
REMARK  124  A    between atoms: _306  and  _307
REMARK  125  A    between atoms: _310  and  _312
REMARK  126  A    between atoms: _312  and  _313
REMARK  127  A    between atoms: _312  and  _315
REMARK  128  A    between atoms: _315  and  _316
REMARK  129  A    between atoms: _321  and  _323
REMARK  130  A    between atoms: _323  and  _324
REMARK  131  A    between atoms: _323  and  _326
REMARK  132  A    between atoms: _326  and  _327
REMARK  133  A    between atoms: _330  and  _332
REMARK  134  A    between atoms: _332  and  _333
REMARK  135  A    between atoms: _332  and  _335
REMARK  136  A    between atoms: _335  and  _336
REMARK  137  A    between atoms: _338  and  _340
REMARK  138  A    between atoms: _340  and  _341
REMARK  139  A    between atoms: _340  and  _343
REMARK  140  A    between atoms: _343  and  _344
REMARK  141  A    between atoms: _346  and  _348
REMARK  142  A    between atoms: _348  and  _349
REMARK  143  A    between atoms: _352  and  _354
REMARK  144  A    between atoms: _354  and  _355
REMARK  145  A    between atoms: _354  and  _357
REMARK  146  A    between atoms: _357  and  _358
REMARK  147  A    between atoms: _361  and  _363
REMARK  148  A    between atoms: _363  and  _364
REMARK  149  A    between atoms: _363  and  _366
REMARK  150  A    between atoms: _366  and  _367
REMARK  151  A    between atoms: _367  and  _368
REMARK  152  A    between atoms: _371  and  _373
REMARK  153  A    between atoms: _373  and  _374
REMARK  154  A    between atoms: _373  and  _376
REMARK  155  A    between atoms: _376  and  _377
REMARK  156  A    between atoms: _380  and  _382
REMARK  157  A    between atoms: _382  and  _383
REMARK  158  A    between atoms: _385  and  _387
REMARK  159  A    between atoms: _387  and  _388
REMARK  160  A    between atoms: _387  and  _390
REMARK  161  A    between atoms: _390  and  _391
REMARK  162  A    between atoms: _391  and  _392
REMARK  163  A    between atoms: _395  and  _397
REMARK  164  A    between atoms: _397  and  _398
REMARK  165  A    between atoms: _397  and  _400
REMARK  166  A    between atoms: _400  and  _401
REMARK  167  A    between atoms: _401  and  _402
REMARK  168  A    between atoms: _405  and  _407
REMARK  169  A    between atoms: _407  and  _408
REMARK  170  A    between atoms: _407  and  _410
REMARK  171  A    between atoms: _410  and  _411
REMARK  172  A    between atoms: _411  and  _412
REMARK  173  A    between atoms: _417  and  _419
REMARK  174  A    between atoms: _419  and  _420
REMARK  175  A    between atoms: _419  and  _422
REMARK  176  A    between atoms: _422  and  _423
REMARK  177  A    between atoms: _423  and  _424
REMARK  178  A    between atoms: _429  and  _431
REMARK  179  A    between atoms: _431  and  _432
REMARK  180  A    between atoms: _431  and  _434
REMARK  181  A    between atoms: _434  and  _435
REMARK  182  A    between atoms: _435  and  _436
REMARK  183  A    between atoms: _436  and  _437
REMARK  184  A    between atoms: _446  and  _448
REMARK  185  A    between atoms: _448  and  _449
REMARK  186  A    between atoms: _448  and  _451
REMARK  187  A    between atoms: _451  and  _452
REMARK  188  A    between atoms: _457  and  _458
REMARK  189  A    between atoms: _460  and  _462
REMARK  190  A    between atoms: _462  and  _463
REMARK  191  A    between atoms: _462  and  _465
REMARK  192  A    between atoms: _465  and  _466
REMARK  193  A    between atoms: _466  and  _467
REMARK  194  A    between atoms: _467  and  _468
REMARK  195  A    between atoms: _468  and  _469
REMARK  196  A    between atoms: _473  and  _475
REMARK  197  A    between atoms: _475  and  _476
REMARK  198  A    between atoms: _475  and  _478
REMARK  199  A    between atoms: _478  and  _479
REMARK  200  A    between atoms: _482  and  _484
REMARK  201  A    between atoms: _484  and  _485
REMARK  202  A    between atoms: _487  and  _489
REMARK  203  A    between atoms: _489  and  _490
REMARK  204  A    between atoms: _489  and  _492
REMARK  205  A    between atoms: _492  and  _493
REMARK  206  A    between atoms: _496  and  _498
REMARK  207  A    between atoms: _498  and  _499
REMARK  208  A    between atoms: _498  and  _501
REMARK  209  A    between atoms: _501  and  _502
REMARK  210  A    between atoms: _502  and  _503
REMARK  211  A    between atoms: _503  and  _504
REMARK  212  A    between atoms: _513  and  _515
REMARK  213  A    between atoms: _515  and  _516
REMARK  214  A    between atoms: _515  and  _518
REMARK  215  A    between atoms: _518  and  _519
REMARK  216  A    between atoms: _519  and  _520
REMARK  217  A    between atoms: _523  and  _525
REMARK  218  A    between atoms: _525  and  _526
REMARK  219  A    between atoms: _525  and  _528
REMARK  220  A    between atoms: _528  and  _529
REMARK  221  A    between atoms: _529  and  _530
REMARK  222  A    between atoms: _530  and  _531
REMARK  223  A    between atoms: _540  and  _542
REMARK  224  A    between atoms: _542  and  _543
REMARK  225  A    between atoms: _542  and  _545
REMARK  226  A    between atoms: _548  and  _550
REMARK  227  A    between atoms: _550  and  _551
REMARK  228  A    between atoms: _550  and  _553
REMARK  229  A    between atoms: _553  and  _554
REMARK  230  A    between atoms: _554  and  _555
REMARK  231  A    between atoms: _558  and  _560
REMARK  232  A    between atoms: _560  and  _561
REMARK  233  A    between atoms: _560  and  _563
REMARK  234  A    between atoms: _563  and  _564
REMARK  235  A    between atoms: _567  and  _569
REMARK  236  A    between atoms: _569  and  _570
REMARK  237  A    between atoms: _569  and  _572
REMARK  238  A    between atoms: _572  and  _573
REMARK  239  A    between atoms: _573  and  _574
REMARK  240  A    between atoms: _577  and  _579
REMARK  241  A    between atoms: _579  and  _580
REMARK  242  A    between atoms: _579  and  _582
REMARK  243  A    between atoms: _582  and  _583
REMARK  244  A    between atoms: _583  and  _584
REMARK  245  A    between atoms: _589  and  _591
REMARK  246  A    between atoms: _591  and  _592
REMARK  247  A    between atoms: _594  and  _596
REMARK  248  A    between atoms: _596  and  _597
REMARK  249  A    between atoms: _596  and  _599
REMARK  250  A    between atoms: _599  and  _600
REMARK  251  A    between atoms: _600  and  _601
REMARK  252  A    between atoms: _606  and  _608
REMARK  253  A    between atoms: _608  and  _609
REMARK  254  A    between atoms: _608  and  _611
REMARK  255  A    between atoms: _611  and  _612
REMARK  256  A    between atoms: _615  and  _617
REMARK  257  A    between atoms: _617  and  _618
REMARK  258  A    between atoms: _617  and  _620
REMARK  259  A    between atoms: _620  and  _621
REMARK  260  A    between atoms: _627  and  _629
REMARK  261  A    between atoms: _629  and  _630
REMARK  262  A    between atoms: _632  and  _634
REMARK  263  A    between atoms: _634  and  _635
REMARK  264  A    between atoms: _634  and  _637
REMARK  265  A    between atoms: _637  and  _638
REMARK  266  A    between atoms: _638  and  _639
REMARK  267  A    between atoms: _643  and  _644
REMARK                            x       y       z     vdW  Elec       q    Type
REMARK                         _______ _______ _______ _____ _____    ______ ____
ROOT
ATOM      1  O   HOH     1      35.484  31.999  13.825  0.00  0.00    +0.000 OA
ENDROOT
TORSDOF 0
REMARK  Name = ../refined-set-2016/3pju/3pju_pocket.pdb
REMARK  267 active torsions:
REMARK  status: ('A' for Active; 'I' for Inactive)
REMARK    1  A    between atoms: _1  and  _3
REMARK    2  A    between atoms: _3  and  _4
REMARK    3  A    between atoms: _3  and  _6
REMARK    4  A    between atoms: _6  and  _7
REMARK    5  A    between atoms: _13  and  _15
REMARK    6  A    between atoms: _15  and  _16
REMARK    7  A    between atoms: _15  and  _18
REMARK    8  A    between atoms: _18  and  _19
REMARK    9  A    between atoms: _19  and  _20
REMARK   10  A    between atoms: _23  and  _25
REMARK   11  A    between atoms: _25  and  _26
REMARK   12  A    between atoms: _25  and  _28
REMARK   13  A    between atoms: _28  and  _29
REMARK   14  A    between atoms: _32  and  _34
REMARK   15  A    between atoms: _34  and  _35
REMARK   16  A    between atoms: _34  and  _37
REMARK   17  A    between atoms: _37  and  _38
REMARK   18  A    between atoms: _44  and  _46
REMARK   19  A    between atoms: _46  and  _47
REMARK   20  A    between atoms: _46  and  _49
REMARK   21  A    between atoms: _49  and  _50
REMARK   22  A    between atoms: _50  and  _51
REMARK   23  A    between atoms: _56  and  _58
REMARK   24  A    between atoms: _58  and  _59
REMARK   25  A    between atoms: _58  and  _61
REMARK   26  A    between atoms: _64  and  _66
REMARK   27  A    between atoms: _66  and  _67
REMARK   28  A    between atoms: _66  and  _69
REMARK   29  A    between atoms: _69  and  _70
REMARK   30  A    between atoms: _70  and  _71
REMARK   31  A    between atoms: _71  and  _72
REMARK   32  A    between atoms: _72  and  _73
REMARK   33  A    between atoms: _77  and  _79
REMARK   34  A    between atoms: _79  and  _80
REMARK   35  A    between atoms: _79  and  _82
REMARK   36  A    between atoms: _85  and  _87
REMARK   37  A    between atoms: _87  and  _88
REMARK   38  A    between atoms: _87  and  _90
REMARK   39  A    between atoms: _90  and  _91
REMARK   40  A    between atoms: _94  and  _96
REMARK   41  A    between atoms: _96  and  _97
REMARK   42  A    between atoms: _96  and  _99
REMARK   43  A    between atoms: _99  and  _100
REMARK   44  A    between atoms: _102  and  _104
REMARK   45  A    between atoms: _104  and  _105
REMARK   46  A    between atoms: _104  and  _107
REMARK   47  A    between atoms: _107  and  _108
REMARK   48  A    between atoms: _108  and  _109
REMARK   49  A    between atoms: _109  and  _110
REMARK   50  A    between atoms: _119  and  _121
REMARK   51  A    between atoms: _121  and  _122
REMARK   52  A    between atoms: _121  and  _124
REMARK   53  A    between atoms: _124  and  _125
REMARK   54  A    between atoms: _129  and  _130
REMARK   55  A    between atoms: _135  and  _137
REMARK   56  A    between atoms: _137  and  _138
REMARK   57  A    between atoms: _141  and  _143
REMARK   58  A    between atoms: _143  and  _144
REMARK   59  A    between atoms: _146  and  _148
REMARK   60  A    between atoms: _148  and  _149
REMARK   61  A    between atoms: _148  and  _151
REMARK   62  A    between atoms: _151  and  _152
REMARK   63  A    between atoms: _152  and  _153
REMARK   64  A    between atoms: _153  and  _154
REMARK   65  A    between atoms: _163  and  _165
REMARK   66  A    between atoms: _165  and  _166
REMARK   67  A    between atoms: _165  and  _168
REMARK   68  A    between atoms: _168  and  _169
REMARK   69  A    between atoms: _175  and  _177
REMARK   70  A    between atoms: _177  and  _178
REMARK   71  A    between atoms: _177  and  _180
REMARK   72  A    between atoms: _180  and  _181
REMARK   73  A    between atoms: _185  and  _186
REMARK   74  A    between atoms: _191  and  _193
REMARK   75  A    between atoms: _193  and  _194
REMARK   76  A    between atoms: _193  and  _196
REMARK   77  A    between atoms: _196  and  _197
REMARK   78  A    between atoms: _200  and  _202
REMARK   79  A    between atoms: _202  and  _203
REMARK   80  A    between atoms: _202  and  _205
REMARK   81  A    between atoms: _205  and  _206
REMARK   82  A    between atoms: _206  and  _207
REMARK   83  A    between atoms: _210  and  _212
REMARK   84  A    between atoms: _212  and  _213
REMARK   85  A    between atoms: _212  and  _215
REMARK   86  A    between atoms: _215  and  _216
REMARK   87  A    between atoms: _219  and  _221
REMARK   88  A    between atoms: _221  and  _222
REMARK   89  A    between atoms: _225  and  _227
REMARK   90  A    between atoms: _227  and  _228
REMARK   91  A    between atoms: _227  and  _230
REMARK   92  A    between atoms: _230  and  _231
REMARK   93  A    between atoms: _234  and  _236
REMARK   94  A    between atoms: _236  and  _237
REMARK   95  A    between atoms: _236  and  _239
REMARK   96  A    between atoms: _239  and  _240
REMARK   97  A    between atoms: _243  and  _245
REMARK   98  A    between atoms: _245  and  _246
REMARK   99  A    between atoms: _245  and  _248
REMARK  100  A    between atoms: _248  and  _249
REMARK  101  A    between atoms: _249  and  _250
REMARK  102  A    between atoms: _250  and  _251
REMARK  103  A    between atoms: _260  and  _262
REMARK  104  A    between atoms: _262  and  _263
REMARK  105  A    between atoms: _262  and  _265
REMARK  106  A    between atoms: _265  and  _266
REMARK  107  A    between atoms: _269  and  _271
REMARK  108  A    between atoms: _271  and  _272
REMARK  109  A    between atoms: _271  and  _274
REMARK  110  A    between atoms: _274  and  _275
REMARK  111  A    between atoms: _275  and  _276
REMARK  112  A    between atoms: _278  and  _280
REMARK  113  A    between atoms: _280  and  _281
REMARK  114  A    between atoms: _280  and  _283
REMARK  115  A    between atoms: _283  and  _284
REMARK  116  A    between atoms: _287  and  _289
REMARK  117  A    between atoms: _289  and  _290
REMARK  118  A    between atoms: _289  and  _292
REMARK  119  A    between atoms: _295  and  _297
REMARK  120  A    between atoms: _297  and  _298
REMARK  121  A    between atoms: _301  and  _303
REMARK  122  A    between atoms: _303  and  _304
REMARK  123  A    between atoms: _303  and  _306
REMARK  124  A    between atoms: _306  and  _307
REMARK  125  A    between atoms: _310  and  _312
REMARK  126  A    between atoms: _312  and  _313
REMARK  127  A    between atoms: _312  and  _315
REMARK  128  A    between atoms: _315  and  _316
REMARK  129  A    between atoms: _321  and  _323
REMARK  130  A    between atoms: _323  and  _324
REMARK  131  A    between atoms: _323  and  _326
REMARK  132  A    between atoms: _326  and  _327
REMARK  133  A    between atoms: _330  and  _332
REMARK  134  A    between atoms: _332  and  _333
REMARK  135  A    between atoms: _332  and  _335
REMARK  136  A    between atoms: _335  and  _336
REMARK  137  A    between atoms: _338  and  _340
REMARK  138  A    between atoms: _340  and  _341
REMARK  139  A    between atoms: _340  and  _343
REMARK  140  A    between atoms: _343  and  _344
REMARK  141  A    between atoms: _346  and  _348
REMARK  142  A    between atoms: _348  and  _349
REMARK  143  A    between atoms: _352  and  _354
REMARK  144  A    between atoms: _354  and  _355
REMARK  145  A    between atoms: _354  and  _357
REMARK  146  A    between atoms: _357  and  _358
REMARK  147  A    between atoms: _361  and  _363
REMARK  148  A    between atoms: _363  and  _364
REMARK  149  A    between atoms: _363  and  _366
REMARK  150  A    between atoms: _366  and  _367
REMARK  151  A    between atoms: _367  and  _368
REMARK  152  A    between atoms: _371  and  _373
REMARK  153  A    between atoms: _373  and  _374
REMARK  154  A    between atoms: _373  and  _376
REMARK  155  A    between atoms: _376  and  _377
REMARK  156  A    between atoms: _380  and  _382
REMARK  157  A    between atoms: _382  and  _383
REMARK  158  A    between atoms: _385  and  _387
REMARK  159  A    between atoms: _387  and  _388
REMARK  160  A    between atoms: _387  and  _390
REMARK  161  A    between atoms: _390  and  _391
REMARK  162  A    between atoms: _391  and  _392
REMARK  163  A    between atoms: _395  and  _397
REMARK  164  A    between atoms: _397  and  _398
REMARK  165  A    between atoms: _397  and  _400
REMARK  166  A    between atoms: _400  and  _401
REMARK  167  A    between atoms: _401  and  _402
REMARK  168  A    between atoms: _405  and  _407
REMARK  169  A    between atoms: _407  and  _408
REMARK  170  A    between atoms: _407  and  _410
REMARK  171  A    between atoms: _410  and  _411
REMARK  172  A    between atoms: _411  and  _412
REMARK  173  A    between atoms: _417  and  _419
REMARK  174  A    between atoms: _419  and  _420
REMARK  175  A    between atoms: _419  and  _422
REMARK  176  A    between atoms: _422  and  _423
REMARK  177  A    between atoms: _423  and  _424
REMARK  178  A    between atoms: _429  and  _431
REMARK  179  A    between atoms: _431  and  _432
REMARK  180  A    between atoms: _431  and  _434
REMARK  181  A    between atoms: _434  and  _435
REMARK  182  A    between atoms: _435  and  _436
REMARK  183  A    between atoms: _436  and  _437
REMARK  184  A    between atoms: _446  and  _448
REMARK  185  A    between atoms: _448  and  _449
REMARK  186  A    between atoms: _448  and  _451
REMARK  187  A    between atoms: _451  and  _452
REMARK  188  A    between atoms: _457  and  _458
REMARK  189  A    between atoms: _460  and  _462
REMARK  190  A    between atoms: _462  and  _463
REMARK  191  A    between atoms: _462  and  _465
REMARK  192  A    between atoms: _465  and  _466
REMARK  193  A    between atoms: _466  and  _467
REMARK  194  A    between atoms: _467  and  _468
REMARK  195  A    between atoms: _468  and  _469
REMARK  196  A    between atoms: _473  and  _475
REMARK  197  A    between atoms: _475  and  _476
REMARK  198  A    between atoms: _475  and  _478
REMARK  199  A    between atoms: _478  and  _479
REMARK  200  A    between atoms: _482  and  _484
REMARK  201  A    between atoms: _484  and  _485
REMARK  202  A    between atoms: _487  and  _489
REMARK  203  A    between atoms: _489  and  _490
REMARK  204  A    between atoms: _489  and  _492
REMARK  205  A    between atoms: _492  and  _493
REMARK  206  A    between atoms: _496  and  _498
REMARK  207  A    between atoms: _498  and  _499
REMARK  208  A    between atoms: _498  and  _501
REMARK  209  A    between atoms: _501  and  _502
REMARK  210  A    between atoms: _502  and  _503
REMARK  211  A    between atoms: _503  and  _504
REMARK  212  A    between atoms: _513  and  _515
REMARK  213  A    between atoms: _515  and  _516
REMARK  214  A    between atoms: _515  and  _518
REMARK  215  A    between atoms: _518  and  _519
REMARK  216  A    between atoms: _519  and  _520
REMARK  217  A    between atoms: _523  and  _525
REMARK  218  A    between atoms: _525  and  _526
REMARK  219  A    between atoms: _525  and  _528
REMARK  220  A    between atoms: _528  and  _529
REMARK  221  A    between atoms: _529  and  _530
REMARK  222  A    between atoms: _530  and  _531
REMARK  223  A    between atoms: _540  and  _542
REMARK  224  A    between atoms: _542  and  _543
REMARK  225  A    between atoms: _542  and  _545
REMARK  226  A    between atoms: _548  and  _550
REMARK  227  A    between atoms: _550  and  _551
REMARK  228  A    between atoms: _550  and  _553
REMARK  229  A    between atoms: _553  and  _554
REMARK  230  A    between atoms: _554  and  _555
REMARK  231  A    between atoms: _558  and  _560
REMARK  232  A    between atoms: _560  and  _561
REMARK  233  A    between atoms: _560  and  _563
REMARK  234  A    between atoms: _563  and  _564
REMARK  235  A    between atoms: _567  and  _569
REMARK  236  A    between atoms: _569  and  _570
REMARK  237  A    between atoms: _569  and  _572
REMARK  238  A    between atoms: _572  and  _573
REMARK  239  A    between atoms: _573  and  _574
REMARK  240  A    between atoms: _577  and  _579
REMARK  241  A    between atoms: _579  and  _580
REMARK  242  A    between atoms: _579  and  _582
REMARK  243  A    between atoms: _582  and  _583
REMARK  244  A    between atoms: _583  and  _584
REMARK  245  A    between atoms: _589  and  _591
REMARK  246  A    between atoms: _591  and  _592
REMARK  247  A    between atoms: _594  and  _596
REMARK  248  A    between atoms: _596  and  _597
REMARK  249  A    between atoms: _596  and  _599
REMARK  250  A    between atoms: _599  and  _600
REMARK  251  A    between atoms: _600  and  _601
REMARK  252  A    between atoms: _606  and  _608
REMARK  253  A    between atoms: _608  and  _609
REMARK  254  A    between atoms: _608  and  _611
REMARK  255  A    between atoms: _611  and  _612
REMARK  256  A    between atoms: _615  and  _617
REMARK  257  A    between atoms: _617  and  _618
REMARK  258  A    between atoms: _617  and  _620
REMARK  259  A    between atoms: _620  and  _621
REMARK  260  A    between atoms: _627  and  _629
REMARK  261  A    between atoms: _629  and  _630
REMARK  262  A    between atoms: _632  and  _634
REMARK  263  A    between atoms: _634  and  _635
REMARK  264  A    between atoms: _634  and  _637
REMARK  265  A    between atoms: _637  and  _638
REMARK  266  A    between atoms: _638  and  _639
REMARK  267  A    between atoms: _643  and  _644
REMARK                            x       y       z     vdW  Elec       q    Type
REMARK                         _______ _______ _______ _____ _____    ______ ____
ROOT
ATOM      1  O   HOH     1      29.961  40.996   1.613  0.00  0.00    +0.000 OA
ENDROOT
TORSDOF 0
