REMARK  Name = ../refined-set-2016/2qnq/2qnq_pocket.pdb
REMARK  241 active torsions:
REMARK  status: ('A' for Active; 'I' for Inactive)
REMARK    1  A    between atoms: _1  and  _3
REMARK    2  A    between atoms: _3  and  _4
REMARK    3  A    between atoms: _3  and  _6
REMARK    4  A    between atoms: _6  and  _7
REMARK    5  A    between atoms: _7  and  _8
REMARK    6  A    between atoms: _8  and  _9
REMARK    7  A    between atoms: _18  and  _20
REMARK    8  A    between atoms: _20  and  _21
REMARK    9  A    between atoms: _20  and  _23
REMARK   10  A    between atoms: _23  and  _24
REMARK   11  A    between atoms: _27  and  _29
REMARK   12  A    between atoms: _29  and  _30
REMARK   13  A    between atoms: _29  and  _32
REMARK   14  A    between atoms: _32  and  _33
REMARK   15  A    between atoms: _36  and  _38
REMARK   16  A    between atoms: _38  and  _39
REMARK   17  A    between atoms: _38  and  _41
REMARK   18  A    between atoms: _41  and  _42
REMARK   19  A    between atoms: _45  and  _47
REMARK   20  A    between atoms: _47  and  _48
REMARK   21  A    between atoms: _47  and  _50
REMARK   22  A    between atoms: _50  and  _51
REMARK   23  A    between atoms: _54  and  _56
REMARK   24  A    between atoms: _56  and  _57
REMARK   25  A    between atoms: _56  and  _59
REMARK   26  A    between atoms: _59  and  _60
REMARK   27  A    between atoms: _63  and  _65
REMARK   28  A    between atoms: _65  and  _66
REMARK   29  A    between atoms: _68  and  _70
REMARK   30  A    between atoms: _70  and  _71
REMARK   31  A    between atoms: _74  and  _76
REMARK   32  A    between atoms: _76  and  _77
REMARK   33  A    between atoms: _76  and  _79
REMARK   34  A    between atoms: _79  and  _80
REMARK   35  A    between atoms: _83  and  _85
REMARK   36  A    between atoms: _85  and  _86
REMARK   37  A    between atoms: _85  and  _88
REMARK   38  A    between atoms: _88  and  _89
REMARK   39  A    between atoms: _92  and  _94
REMARK   40  A    between atoms: _94  and  _95
REMARK   41  A    between atoms: _94  and  _97
REMARK   42  A    between atoms: _97  and  _98
REMARK   43  A    between atoms: _101  and  _103
REMARK   44  A    between atoms: _103  and  _104
REMARK   45  A    between atoms: _103  and  _106
REMARK   46  A    between atoms: _109  and  _111
REMARK   47  A    between atoms: _111  and  _112
REMARK   48  A    between atoms: _111  and  _114
REMARK   49  A    between atoms: _114  and  _115
REMARK   50  A    between atoms: _118  and  _120
REMARK   51  A    between atoms: _120  and  _121
REMARK   52  A    between atoms: _120  and  _123
REMARK   53  A    between atoms: _123  and  _124
REMARK   54  A    between atoms: _124  and  _125
REMARK   55  A    between atoms: _125  and  _126
REMARK   56  A    between atoms: _126  and  _127
REMARK   57  A    between atoms: _131  and  _133
REMARK   58  A    between atoms: _133  and  _134
REMARK   59  A    between atoms: _133  and  _136
REMARK   60  A    between atoms: _136  and  _137
REMARK   61  A    between atoms: _137  and  _138
REMARK   62  A    between atoms: _140  and  _142
REMARK   63  A    between atoms: _142  and  _143
REMARK   64  A    between atoms: _142  and  _145
REMARK   65  A    between atoms: _145  and  _146
REMARK   66  A    between atoms: _149  and  _151
REMARK   67  A    between atoms: _151  and  _152
REMARK   68  A    between atoms: _154  and  _156
REMARK   69  A    between atoms: _156  and  _157
REMARK   70  A    between atoms: _159  and  _161
REMARK   71  A    between atoms: _161  and  _162
REMARK   72  A    between atoms: _161  and  _164
REMARK   73  A    between atoms: _164  and  _165
REMARK   74  A    between atoms: _168  and  _170
REMARK   75  A    between atoms: _170  and  _171
REMARK   76  A    between atoms: _173  and  _175
REMARK   77  A    between atoms: _175  and  _176
REMARK   78  A    between atoms: _178  and  _180
REMARK   79  A    between atoms: _180  and  _181
REMARK   80  A    between atoms: _180  and  _183
REMARK   81  A    between atoms: _183  and  _184
REMARK   82  A    between atoms: _190  and  _192
REMARK   83  A    between atoms: _192  and  _193
REMARK   84  A    between atoms: _192  and  _195
REMARK   85  A    between atoms: _195  and  _196
REMARK   86  A    between atoms: _199  and  _201
REMARK   87  A    between atoms: _201  and  _202
REMARK   88  A    between atoms: _201  and  _204
REMARK   89  A    between atoms: _207  and  _209
REMARK   90  A    between atoms: _209  and  _210
REMARK   91  A    between atoms: _209  and  _212
REMARK   92  A    between atoms: _212  and  _213
REMARK   93  A    between atoms: _216  and  _218
REMARK   94  A    between atoms: _218  and  _219
REMARK   95  A    between atoms: _218  and  _221
REMARK   96  A    between atoms: _221  and  _222
REMARK   97  A    between atoms: _226  and  _227
REMARK   98  A    between atoms: _232  and  _234
REMARK   99  A    between atoms: _234  and  _235
REMARK  100  A    between atoms: _234  and  _237
REMARK  101  A    between atoms: _240  and  _242
REMARK  102  A    between atoms: _242  and  _243
REMARK  103  A    between atoms: _242  and  _245
REMARK  104  A    between atoms: _245  and  _246
REMARK  105  A    between atoms: _251  and  _253
REMARK  106  A    between atoms: _253  and  _254
REMARK  107  A    between atoms: _253  and  _256
REMARK  108  A    between atoms: _256  and  _257
REMARK  109  A    between atoms: _260  and  _262
REMARK  110  A    between atoms: _262  and  _263
REMARK  111  A    between atoms: _262  and  _265
REMARK  112  A    between atoms: _265  and  _266
REMARK  113  A    between atoms: _269  and  _271
REMARK  114  A    between atoms: _271  and  _272
REMARK  115  A    between atoms: _274  and  _276
REMARK  116  A    between atoms: _276  and  _277
REMARK  117  A    between atoms: _276  and  _279
REMARK  118  A    between atoms: _279  and  _280
REMARK  119  A    between atoms: _280  and  _281
REMARK  120  A    between atoms: _281  and  _282
REMARK  121  A    between atoms: _291  and  _293
REMARK  122  A    between atoms: _293  and  _294
REMARK  123  A    between atoms: _293  and  _296
REMARK  124  A    between atoms: _296  and  _297
REMARK  125  A    between atoms: _302  and  _304
REMARK  126  A    between atoms: _304  and  _305
REMARK  127  A    between atoms: _304  and  _307
REMARK  128  A    between atoms: _307  and  _308
REMARK  129  A    between atoms: _308  and  _309
REMARK  130  A    between atoms: _309  and  _310
REMARK  131  A    between atoms: _320  and  _321
REMARK  132  A    between atoms: _326  and  _328
REMARK  133  A    between atoms: _328  and  _329
REMARK  134  A    between atoms: _328  and  _331
REMARK  135  A    between atoms: _331  and  _332
REMARK  136  A    between atoms: _335  and  _337
REMARK  137  A    between atoms: _337  and  _338
REMARK  138  A    between atoms: _337  and  _340
REMARK  139  A    between atoms: _340  and  _341
REMARK  140  A    between atoms: _344  and  _346
REMARK  141  A    between atoms: _346  and  _347
REMARK  142  A    between atoms: _346  and  _349
REMARK  143  A    between atoms: _349  and  _350
REMARK  144  A    between atoms: _353  and  _355
REMARK  145  A    between atoms: _355  and  _356
REMARK  146  A    between atoms: _355  and  _358
REMARK  147  A    between atoms: _358  and  _359
REMARK  148  A    between atoms: _362  and  _364
REMARK  149  A    between atoms: _364  and  _365
REMARK  150  A    between atoms: _364  and  _367
REMARK  151  A    between atoms: _367  and  _368
REMARK  152  A    between atoms: _371  and  _373
REMARK  153  A    between atoms: _373  and  _374
REMARK  154  A    between atoms: _376  and  _378
REMARK  155  A    between atoms: _378  and  _379
REMARK  156  A    between atoms: _382  and  _384
REMARK  157  A    between atoms: _384  and  _385
REMARK  158  A    between atoms: _384  and  _387
REMARK  159  A    between atoms: _387  and  _388
REMARK  160  A    between atoms: _391  and  _393
REMARK  161  A    between atoms: _393  and  _394
REMARK  162  A    between atoms: _393  and  _396
REMARK  163  A    between atoms: _396  and  _397
REMARK  164  A    between atoms: _400  and  _402
REMARK  165  A    between atoms: _402  and  _403
REMARK  166  A    between atoms: _402  and  _405
REMARK  167  A    between atoms: _405  and  _406
REMARK  168  A    between atoms: _409  and  _411
REMARK  169  A    between atoms: _411  and  _412
REMARK  170  A    between atoms: _411  and  _414
REMARK  171  A    between atoms: _417  and  _419
REMARK  172  A    between atoms: _419  and  _420
REMARK  173  A    between atoms: _419  and  _422
REMARK  174  A    between atoms: _422  and  _423
REMARK  175  A    between atoms: _426  and  _428
REMARK  176  A    between atoms: _428  and  _429
REMARK  177  A    between atoms: _428  and  _431
REMARK  178  A    between atoms: _431  and  _432
REMARK  179  A    between atoms: _432  and  _433
REMARK  180  A    between atoms: _433  and  _434
REMARK  181  A    between atoms: _434  and  _435
REMARK  182  A    between atoms: _439  and  _441
REMARK  183  A    between atoms: _441  and  _442
REMARK  184  A    between atoms: _441  and  _444
REMARK  185  A    between atoms: _444  and  _445
REMARK  186  A    between atoms: _448  and  _450
REMARK  187  A    between atoms: _450  and  _451
REMARK  188  A    between atoms: _453  and  _455
REMARK  189  A    between atoms: _455  and  _456
REMARK  190  A    between atoms: _458  and  _460
REMARK  191  A    between atoms: _460  and  _461
REMARK  192  A    between atoms: _460  and  _463
REMARK  193  A    between atoms: _463  and  _464
REMARK  194  A    between atoms: _467  and  _469
REMARK  195  A    between atoms: _469  and  _470
REMARK  196  A    between atoms: _472  and  _474
REMARK  197  A    between atoms: _474  and  _475
REMARK  198  A    between atoms: _477  and  _479
REMARK  199  A    between atoms: _479  and  _480
REMARK  200  A    between atoms: _479  and  _482
REMARK  201  A    between atoms: _482  and  _483
REMARK  202  A    between atoms: _489  and  _491
REMARK  203  A    between atoms: _491  and  _492
REMARK  204  A    between atoms: _491  and  _494
REMARK  205  A    between atoms: _494  and  _495
REMARK  206  A    between atoms: _498  and  _500
REMARK  207  A    between atoms: _500  and  _501
REMARK  208  A    between atoms: _500  and  _503
REMARK  209  A    between atoms: _506  and  _508
REMARK  210  A    between atoms: _508  and  _509
REMARK  211  A    between atoms: _508  and  _511
REMARK  212  A    between atoms: _511  and  _512
REMARK  213  A    between atoms: _516  and  _517
REMARK  214  A    between atoms: _522  and  _524
REMARK  215  A    between atoms: _524  and  _525
REMARK  216  A    between atoms: _524  and  _527
REMARK  217  A    between atoms: _527  and  _528
REMARK  218  A    between atoms: _532  and  _533
REMARK  219  A    between atoms: _538  and  _540
REMARK  220  A    between atoms: _540  and  _541
REMARK  221  A    between atoms: _540  and  _543
REMARK  222  A    between atoms: _546  and  _548
REMARK  223  A    between atoms: _548  and  _549
REMARK  224  A    between atoms: _548  and  _551
REMARK  225  A    between atoms: _551  and  _552
REMARK  226  A    between atoms: _557  and  _559
REMARK  227  A    between atoms: _559  and  _560
REMARK  228  A    between atoms: _559  and  _562
REMARK  229  A    between atoms: _562  and  _563
REMARK  230  A    between atoms: _566  and  _568
REMARK  231  A    between atoms: _568  and  _569
REMARK  232  A    between atoms: _568  and  _571
REMARK  233  A    between atoms: _571  and  _572
REMARK  234  A    between atoms: _575  and  _577
REMARK  235  A    between atoms: _577  and  _578
REMARK  236  A    between atoms: _580  and  _582
REMARK  237  A    between atoms: _582  and  _583
REMARK  238  A    between atoms: _582  and  _585
REMARK  239  A    between atoms: _585  and  _586
REMARK  240  A    between atoms: _586  and  _587
REMARK  241  A    between atoms: _587  and  _588
REMARK                            x       y       z     vdW  Elec       q    Type
REMARK                         _______ _______ _______ _____ _____    ______ ____
ROOT
ATOM      1  NE  ARG A   1      -5.673  22.756  -7.592  0.00  0.00    -0.265 N 
ATOM      2  HE  ARG A   1      -5.621  22.970  -6.576  0.00  0.00    +0.259 HD
ATOM      3  CZ  ARG A   1      -5.981  23.753  -8.418  0.00  0.00    +0.342 C 
ATOM      4  NH2 ARG A   1      -6.193  24.970  -7.934  0.00  0.00    -0.292 N 
ATOM      5 HH21 ARG A   1      -6.118  25.143  -6.911  0.00  0.00    +0.255 HD
ATOM      6 HH22 ARG A   1      -6.434  25.751  -8.577  0.00  0.00    +0.255 HD
ATOM      7  NH1 ARG A   1      -6.065  23.542  -9.728  0.00  0.00    -0.292 N 
ATOM      8 HH11 ARG A   1      -5.889  22.592 -10.114  0.00  0.00    +0.255 HD
ATOM      9 HH12 ARG A   1      -6.306  24.327 -10.367  0.00  0.00    +0.255 HD
ENDROOT
BRANCH   1  10
ATOM     10  CD  ARG A   1      -5.403  21.384  -8.011  0.00  0.00    +0.174 C 
BRANCH  10  11
ATOM     11  CG  ARG A   1      -4.831  20.570  -6.861  0.00  0.00    +0.045 C 
BRANCH  11  12
ATOM     12  CB  ARG A   1      -4.396  19.192  -7.298  0.00  0.00    +0.029 C 
BRANCH  12  13
ATOM     13  CA  ARG A   1      -3.733  18.382  -6.181  0.00  0.00    +0.133 C 
BRANCH  13  14
ATOM     14  N   ARG A   1      -2.506  19.026  -5.743  0.00  0.00    -0.239 NA
ATOM     15  H   ARG A   1      -2.178  19.896  -6.208  0.00  0.00    +0.142 HD
ENDBRANCH  13  14
BRANCH  13  16
ATOM     16  C   ARG A   1      -3.356  16.985  -6.677  0.00  0.00    +0.224 C 
ATOM     17  O   ARG A   1      -2.353  16.807  -7.383  0.00  0.00    -0.287 OA
ENDBRANCH  13  16
ENDBRANCH  12  13
ENDBRANCH  11  12
ENDBRANCH  10  11
ENDBRANCH   1  10
TORSDOF 6
REMARK  Name = ../refined-set-2016/2qnq/2qnq_pocket.pdb
REMARK  241 active torsions:
REMARK  status: ('A' for Active; 'I' for Inactive)
REMARK    1  A    between atoms: _1  and  _3
REMARK    2  A    between atoms: _3  and  _4
REMARK    3  A    between atoms: _3  and  _6
REMARK    4  A    between atoms: _6  and  _7
REMARK    5  A    between atoms: _7  and  _8
REMARK    6  A    between atoms: _8  and  _9
REMARK    7  A    between atoms: _18  and  _20
REMARK    8  A    between atoms: _20  and  _21
REMARK    9  A    between atoms: _20  and  _23
REMARK   10  A    between atoms: _23  and  _24
REMARK   11  A    between atoms: _27  and  _29
REMARK   12  A    between atoms: _29  and  _30
REMARK   13  A    between atoms: _29  and  _32
REMARK   14  A    between atoms: _32  and  _33
REMARK   15  A    between atoms: _36  and  _38
REMARK   16  A    between atoms: _38  and  _39
REMARK   17  A    between atoms: _38  and  _41
REMARK   18  A    between atoms: _41  and  _42
REMARK   19  A    between atoms: _45  and  _47
REMARK   20  A    between atoms: _47  and  _48
REMARK   21  A    between atoms: _47  and  _50
REMARK   22  A    between atoms: _50  and  _51
REMARK   23  A    between atoms: _54  and  _56
REMARK   24  A    between atoms: _56  and  _57
REMARK   25  A    between atoms: _56  and  _59
REMARK   26  A    between atoms: _59  and  _60
REMARK   27  A    between atoms: _63  and  _65
REMARK   28  A    between atoms: _65  and  _66
REMARK   29  A    between atoms: _68  and  _70
REMARK   30  A    between atoms: _70  and  _71
REMARK   31  A    between atoms: _74  and  _76
REMARK   32  A    between atoms: _76  and  _77
REMARK   33  A    between atoms: _76  and  _79
REMARK   34  A    between atoms: _79  and  _80
REMARK   35  A    between atoms: _83  and  _85
REMARK   36  A    between atoms: _85  and  _86
REMARK   37  A    between atoms: _85  and  _88
REMARK   38  A    between atoms: _88  and  _89
REMARK   39  A    between atoms: _92  and  _94
REMARK   40  A    between atoms: _94  and  _95
REMARK   41  A    between atoms: _94  and  _97
REMARK   42  A    between atoms: _97  and  _98
REMARK   43  A    between atoms: _101  and  _103
REMARK   44  A    between atoms: _103  and  _104
REMARK   45  A    between atoms: _103  and  _106
REMARK   46  A    between atoms: _109  and  _111
REMARK   47  A    between atoms: _111  and  _112
REMARK   48  A    between atoms: _111  and  _114
REMARK   49  A    between atoms: _114  and  _115
REMARK   50  A    between atoms: _118  and  _120
REMARK   51  A    between atoms: _120  and  _121
REMARK   52  A    between atoms: _120  and  _123
REMARK   53  A    between atoms: _123  and  _124
REMARK   54  A    between atoms: _124  and  _125
REMARK   55  A    between atoms: _125  and  _126
REMARK   56  A    between atoms: _126  and  _127
REMARK   57  A    between atoms: _131  and  _133
REMARK   58  A    between atoms: _133  and  _134
REMARK   59  A    between atoms: _133  and  _136
REMARK   60  A    between atoms: _136  and  _137
REMARK   61  A    between atoms: _137  and  _138
REMARK   62  A    between atoms: _140  and  _142
REMARK   63  A    between atoms: _142  and  _143
REMARK   64  A    between atoms: _142  and  _145
REMARK   65  A    between atoms: _145  and  _146
REMARK   66  A    between atoms: _149  and  _151
REMARK   67  A    between atoms: _151  and  _152
REMARK   68  A    between atoms: _154  and  _156
REMARK   69  A    between atoms: _156  and  _157
REMARK   70  A    between atoms: _159  and  _161
REMARK   71  A    between atoms: _161  and  _162
REMARK   72  A    between atoms: _161  and  _164
REMARK   73  A    between atoms: _164  and  _165
REMARK   74  A    between atoms: _168  and  _170
REMARK   75  A    between atoms: _170  and  _171
REMARK   76  A    between atoms: _173  and  _175
REMARK   77  A    between atoms: _175  and  _176
REMARK   78  A    between atoms: _178  and  _180
REMARK   79  A    between atoms: _180  and  _181
REMARK   80  A    between atoms: _180  and  _183
REMARK   81  A    between atoms: _183  and  _184
REMARK   82  A    between atoms: _190  and  _192
REMARK   83  A    between atoms: _192  and  _193
REMARK   84  A    between atoms: _192  and  _195
REMARK   85  A    between atoms: _195  and  _196
REMARK   86  A    between atoms: _199  and  _201
REMARK   87  A    between atoms: _201  and  _202
REMARK   88  A    between atoms: _201  and  _204
REMARK   89  A    between atoms: _207  and  _209
REMARK   90  A    between atoms: _209  and  _210
REMARK   91  A    between atoms: _209  and  _212
REMARK   92  A    between atoms: _212  and  _213
REMARK   93  A    between atoms: _216  and  _218
REMARK   94  A    between atoms: _218  and  _219
REMARK   95  A    between atoms: _218  and  _221
REMARK   96  A    between atoms: _221  and  _222
REMARK   97  A    between atoms: _226  and  _227
REMARK   98  A    between atoms: _232  and  _234
REMARK   99  A    between atoms: _234  and  _235
REMARK  100  A    between atoms: _234  and  _237
REMARK  101  A    between atoms: _240  and  _242
REMARK  102  A    between atoms: _242  and  _243
REMARK  103  A    between atoms: _242  and  _245
REMARK  104  A    between atoms: _245  and  _246
REMARK  105  A    between atoms: _251  and  _253
REMARK  106  A    between atoms: _253  and  _254
REMARK  107  A    between atoms: _253  and  _256
REMARK  108  A    between atoms: _256  and  _257
REMARK  109  A    between atoms: _260  and  _262
REMARK  110  A    between atoms: _262  and  _263
REMARK  111  A    between atoms: _262  and  _265
REMARK  112  A    between atoms: _265  and  _266
REMARK  113  A    between atoms: _269  and  _271
REMARK  114  A    between atoms: _271  and  _272
REMARK  115  A    between atoms: _274  and  _276
REMARK  116  A    between atoms: _276  and  _277
REMARK  117  A    between atoms: _276  and  _279
REMARK  118  A    between atoms: _279  and  _280
REMARK  119  A    between atoms: _280  and  _281
REMARK  120  A    between atoms: _281  and  _282
REMARK  121  A    between atoms: _291  and  _293
REMARK  122  A    between atoms: _293  and  _294
REMARK  123  A    between atoms: _293  and  _296
REMARK  124  A    between atoms: _296  and  _297
REMARK  125  A    between atoms: _302  and  _304
REMARK  126  A    between atoms: _304  and  _305
REMARK  127  A    between atoms: _304  and  _307
REMARK  128  A    between atoms: _307  and  _308
REMARK  129  A    between atoms: _308  and  _309
REMARK  130  A    between atoms: _309  and  _310
REMARK  131  A    between atoms: _320  and  _321
REMARK  132  A    between atoms: _326  and  _328
REMARK  133  A    between atoms: _328  and  _329
REMARK  134  A    between atoms: _328  and  _331
REMARK  135  A    between atoms: _331  and  _332
REMARK  136  A    between atoms: _335  and  _337
REMARK  137  A    between atoms: _337  and  _338
REMARK  138  A    between atoms: _337  and  _340
REMARK  139  A    between atoms: _340  and  _341
REMARK  140  A    between atoms: _344  and  _346
REMARK  141  A    between atoms: _346  and  _347
REMARK  142  A    between atoms: _346  and  _349
REMARK  143  A    between atoms: _349  and  _350
REMARK  144  A    between atoms: _353  and  _355
REMARK  145  A    between atoms: _355  and  _356
REMARK  146  A    between atoms: _355  and  _358
REMARK  147  A    between atoms: _358  and  _359
REMARK  148  A    between atoms: _362  and  _364
REMARK  149  A    between atoms: _364  and  _365
REMARK  150  A    between atoms: _364  and  _367
REMARK  151  A    between atoms: _367  and  _368
REMARK  152  A    between atoms: _371  and  _373
REMARK  153  A    between atoms: _373  and  _374
REMARK  154  A    between atoms: _376  and  _378
REMARK  155  A    between atoms: _378  and  _379
REMARK  156  A    between atoms: _382  and  _384
REMARK  157  A    between atoms: _384  and  _385
REMARK  158  A    between atoms: _384  and  _387
REMARK  159  A    between atoms: _387  and  _388
REMARK  160  A    between atoms: _391  and  _393
REMARK  161  A    between atoms: _393  and  _394
REMARK  162  A    between atoms: _393  and  _396
REMARK  163  A    between atoms: _396  and  _397
REMARK  164  A    between atoms: _400  and  _402
REMARK  165  A    between atoms: _402  and  _403
REMARK  166  A    between atoms: _402  and  _405
REMARK  167  A    between atoms: _405  and  _406
REMARK  168  A    between atoms: _409  and  _411
REMARK  169  A    between atoms: _411  and  _412
REMARK  170  A    between atoms: _411  and  _414
REMARK  171  A    between atoms: _417  and  _419
REMARK  172  A    between atoms: _419  and  _420
REMARK  173  A    between atoms: _419  and  _422
REMARK  174  A    between atoms: _422  and  _423
REMARK  175  A    between atoms: _426  and  _428
REMARK  176  A    between atoms: _428  and  _429
REMARK  177  A    between atoms: _428  and  _431
REMARK  178  A    between atoms: _431  and  _432
REMARK  179  A    between atoms: _432  and  _433
REMARK  180  A    between atoms: _433  and  _434
REMARK  181  A    between atoms: _434  and  _435
REMARK  182  A    between atoms: _439  and  _441
REMARK  183  A    between atoms: _441  and  _442
REMARK  184  A    between atoms: _441  and  _444
REMARK  185  A    between atoms: _444  and  _445
REMARK  186  A    between atoms: _448  and  _450
REMARK  187  A    between atoms: _450  and  _451
REMARK  188  A    between atoms: _453  and  _455
REMARK  189  A    between atoms: _455  and  _456
REMARK  190  A    between atoms: _458  and  _460
REMARK  191  A    between atoms: _460  and  _461
REMARK  192  A    between atoms: _460  and  _463
REMARK  193  A    between atoms: _463  and  _464
REMARK  194  A    between atoms: _467  and  _469
REMARK  195  A    between atoms: _469  and  _470
REMARK  196  A    between atoms: _472  and  _474
REMARK  197  A    between atoms: _474  and  _475
REMARK  198  A    between atoms: _477  and  _479
REMARK  199  A    between atoms: _479  and  _480
REMARK  200  A    between atoms: _479  and  _482
REMARK  201  A    between atoms: _482  and  _483
REMARK  202  A    between atoms: _489  and  _491
REMARK  203  A    between atoms: _491  and  _492
REMARK  204  A    between atoms: _491  and  _494
REMARK  205  A    between atoms: _494  and  _495
REMARK  206  A    between atoms: _498  and  _500
REMARK  207  A    between atoms: _500  and  _501
REMARK  208  A    between atoms: _500  and  _503
REMARK  209  A    between atoms: _506  and  _508
REMARK  210  A    between atoms: _508  and  _509
REMARK  211  A    between atoms: _508  and  _511
REMARK  212  A    between atoms: _511  and  _512
REMARK  213  A    between atoms: _516  and  _517
REMARK  214  A    between atoms: _522  and  _524
REMARK  215  A    between atoms: _524  and  _525
REMARK  216  A    between atoms: _524  and  _527
REMARK  217  A    between atoms: _527  and  _528
REMARK  218  A    between atoms: _532  and  _533
REMARK  219  A    between atoms: _538  and  _540
REMARK  220  A    between atoms: _540  and  _541
REMARK  221  A    between atoms: _540  and  _543
REMARK  222  A    between atoms: _546  and  _548
REMARK  223  A    between atoms: _548  and  _549
REMARK  224  A    between atoms: _548  and  _551
REMARK  225  A    between atoms: _551  and  _552
REMARK  226  A    between atoms: _557  and  _559
REMARK  227  A    between atoms: _559  and  _560
REMARK  228  A    between atoms: _559  and  _562
REMARK  229  A    between atoms: _562  and  _563
REMARK  230  A    between atoms: _566  and  _568
REMARK  231  A    between atoms: _568  and  _569
REMARK  232  A    between atoms: _568  and  _571
REMARK  233  A    between atoms: _571  and  _572
REMARK  234  A    between atoms: _575  and  _577
REMARK  235  A    between atoms: _577  and  _578
REMARK  236  A    between atoms: _580  and  _582
REMARK  237  A    between atoms: _582  and  _583
REMARK  238  A    between atoms: _582  and  _585
REMARK  239  A    between atoms: _585  and  _586
REMARK  240  A    between atoms: _586  and  _587
REMARK  241  A    between atoms: _587  and  _588
REMARK                            x       y       z     vdW  Elec       q    Type
REMARK                         _______ _______ _______ _____ _____    ______ ____
ROOT
ATOM      1  CA  LEU A   1      -3.709  14.669 -10.517  0.00  0.00    +0.133 C 
ENDROOT
BRANCH   1   2
ATOM      2  N   LEU A   1      -3.441  14.833  -9.092  0.00  0.00    -0.239 NA
ATOM      3  H   LEU A   1      -2.587  15.346  -8.792  0.00  0.00    +0.142 HD
ENDBRANCH   1   2
BRANCH   1   4
ATOM      4  C   LEU A   1      -3.030  13.426 -11.066  0.00  0.00    +0.224 C 
ATOM      5  O   LEU A   1      -1.843  13.199 -10.832  0.00  0.00    -0.287 OA
ENDBRANCH   1   4
BRANCH   1   6
ATOM      6  CB  LEU A   1      -3.231  15.898 -11.295  0.00  0.00    +0.025 C 
BRANCH   6   7
ATOM      7  CG  LEU A   1      -3.945  17.219 -10.973  0.00  0.00    +0.002 C 
ATOM      8  CD2 LEU A   1      -5.407  17.133 -11.414  0.00  0.00    +0.000 C 
ATOM      9  CD1 LEU A   1      -3.243  18.380 -11.672  0.00  0.00    +0.000 C 
ENDBRANCH   6   7
ENDBRANCH   1   6
TORSDOF 4
REMARK  Name = ../refined-set-2016/2qnq/2qnq_pocket.pdb
REMARK  241 active torsions:
REMARK  status: ('A' for Active; 'I' for Inactive)
REMARK    1  A    between atoms: _1  and  _3
REMARK    2  A    between atoms: _3  and  _4
REMARK    3  A    between atoms: _3  and  _6
REMARK    4  A    between atoms: _6  and  _7
REMARK    5  A    between atoms: _7  and  _8
REMARK    6  A    between atoms: _8  and  _9
REMARK    7  A    between atoms: _18  and  _20
REMARK    8  A    between atoms: _20  and  _21
REMARK    9  A    between atoms: _20  and  _23
REMARK   10  A    between atoms: _23  and  _24
REMARK   11  A    between atoms: _27  and  _29
REMARK   12  A    between atoms: _29  and  _30
REMARK   13  A    between atoms: _29  and  _32
REMARK   14  A    between atoms: _32  and  _33
REMARK   15  A    between atoms: _36  and  _38
REMARK   16  A    between atoms: _38  and  _39
REMARK   17  A    between atoms: _38  and  _41
REMARK   18  A    between atoms: _41  and  _42
REMARK   19  A    between atoms: _45  and  _47
REMARK   20  A    between atoms: _47  and  _48
REMARK   21  A    between atoms: _47  and  _50
REMARK   22  A    between atoms: _50  and  _51
REMARK   23  A    between atoms: _54  and  _56
REMARK   24  A    between atoms: _56  and  _57
REMARK   25  A    between atoms: _56  and  _59
REMARK   26  A    between atoms: _59  and  _60
REMARK   27  A    between atoms: _63  and  _65
REMARK   28  A    between atoms: _65  and  _66
REMARK   29  A    between atoms: _68  and  _70
REMARK   30  A    between atoms: _70  and  _71
REMARK   31  A    between atoms: _74  and  _76
REMARK   32  A    between atoms: _76  and  _77
REMARK   33  A    between atoms: _76  and  _79
REMARK   34  A    between atoms: _79  and  _80
REMARK   35  A    between atoms: _83  and  _85
REMARK   36  A    between atoms: _85  and  _86
REMARK   37  A    between atoms: _85  and  _88
REMARK   38  A    between atoms: _88  and  _89
REMARK   39  A    between atoms: _92  and  _94
REMARK   40  A    between atoms: _94  and  _95
REMARK   41  A    between atoms: _94  and  _97
REMARK   42  A    between atoms: _97  and  _98
REMARK   43  A    between atoms: _101  and  _103
REMARK   44  A    between atoms: _103  and  _104
REMARK   45  A    between atoms: _103  and  _106
REMARK   46  A    between atoms: _109  and  _111
REMARK   47  A    between atoms: _111  and  _112
REMARK   48  A    between atoms: _111  and  _114
REMARK   49  A    between atoms: _114  and  _115
REMARK   50  A    between atoms: _118  and  _120
REMARK   51  A    between atoms: _120  and  _121
REMARK   52  A    between atoms: _120  and  _123
REMARK   53  A    between atoms: _123  and  _124
REMARK   54  A    between atoms: _124  and  _125
REMARK   55  A    between atoms: _125  and  _126
REMARK   56  A    between atoms: _126  and  _127
REMARK   57  A    between atoms: _131  and  _133
REMARK   58  A    between atoms: _133  and  _134
REMARK   59  A    between atoms: _133  and  _136
REMARK   60  A    between atoms: _136  and  _137
REMARK   61  A    between atoms: _137  and  _138
REMARK   62  A    between atoms: _140  and  _142
REMARK   63  A    between atoms: _142  and  _143
REMARK   64  A    between atoms: _142  and  _145
REMARK   65  A    between atoms: _145  and  _146
REMARK   66  A    between atoms: _149  and  _151
REMARK   67  A    between atoms: _151  and  _152
REMARK   68  A    between atoms: _154  and  _156
REMARK   69  A    between atoms: _156  and  _157
REMARK   70  A    between atoms: _159  and  _161
REMARK   71  A    between atoms: _161  and  _162
REMARK   72  A    between atoms: _161  and  _164
REMARK   73  A    between atoms: _164  and  _165
REMARK   74  A    between atoms: _168  and  _170
REMARK   75  A    between atoms: _170  and  _171
REMARK   76  A    between atoms: _173  and  _175
REMARK   77  A    between atoms: _175  and  _176
REMARK   78  A    between atoms: _178  and  _180
REMARK   79  A    between atoms: _180  and  _181
REMARK   80  A    between atoms: _180  and  _183
REMARK   81  A    between atoms: _183  and  _184
REMARK   82  A    between atoms: _190  and  _192
REMARK   83  A    between atoms: _192  and  _193
REMARK   84  A    between atoms: _192  and  _195
REMARK   85  A    between atoms: _195  and  _196
REMARK   86  A    between atoms: _199  and  _201
REMARK   87  A    between atoms: _201  and  _202
REMARK   88  A    between atoms: _201  and  _204
REMARK   89  A    between atoms: _207  and  _209
REMARK   90  A    between atoms: _209  and  _210
REMARK   91  A    between atoms: _209  and  _212
REMARK   92  A    between atoms: _212  and  _213
REMARK   93  A    between atoms: _216  and  _218
REMARK   94  A    between atoms: _218  and  _219
REMARK   95  A    between atoms: _218  and  _221
REMARK   96  A    between atoms: _221  and  _222
REMARK   97  A    between atoms: _226  and  _227
REMARK   98  A    between atoms: _232  and  _234
REMARK   99  A    between atoms: _234  and  _235
REMARK  100  A    between atoms: _234  and  _237
REMARK  101  A    between atoms: _240  and  _242
REMARK  102  A    between atoms: _242  and  _243
REMARK  103  A    between atoms: _242  and  _245
REMARK  104  A    between atoms: _245  and  _246
REMARK  105  A    between atoms: _251  and  _253
REMARK  106  A    between atoms: _253  and  _254
REMARK  107  A    between atoms: _253  and  _256
REMARK  108  A    between atoms: _256  and  _257
REMARK  109  A    between atoms: _260  and  _262
REMARK  110  A    between atoms: _262  and  _263
REMARK  111  A    between atoms: _262  and  _265
REMARK  112  A    between atoms: _265  and  _266
REMARK  113  A    between atoms: _269  and  _271
REMARK  114  A    between atoms: _271  and  _272
REMARK  115  A    between atoms: _274  and  _276
REMARK  116  A    between atoms: _276  and  _277
REMARK  117  A    between atoms: _276  and  _279
REMARK  118  A    between atoms: _279  and  _280
REMARK  119  A    between atoms: _280  and  _281
REMARK  120  A    between atoms: _281  and  _282
REMARK  121  A    between atoms: _291  and  _293
REMARK  122  A    between atoms: _293  and  _294
REMARK  123  A    between atoms: _293  and  _296
REMARK  124  A    between atoms: _296  and  _297
REMARK  125  A    between atoms: _302  and  _304
REMARK  126  A    between atoms: _304  and  _305
REMARK  127  A    between atoms: _304  and  _307
REMARK  128  A    between atoms: _307  and  _308
REMARK  129  A    between atoms: _308  and  _309
REMARK  130  A    between atoms: _309  and  _310
REMARK  131  A    between atoms: _320  and  _321
REMARK  132  A    between atoms: _326  and  _328
REMARK  133  A    between atoms: _328  and  _329
REMARK  134  A    between atoms: _328  and  _331
REMARK  135  A    between atoms: _331  and  _332
REMARK  136  A    between atoms: _335  and  _337
REMARK  137  A    between atoms: _337  and  _338
REMARK  138  A    between atoms: _337  and  _340
REMARK  139  A    between atoms: _340  and  _341
REMARK  140  A    between atoms: _344  and  _346
REMARK  141  A    between atoms: _346  and  _347
REMARK  142  A    between atoms: _346  and  _349
REMARK  143  A    between atoms: _349  and  _350
REMARK  144  A    between atoms: _353  and  _355
REMARK  145  A    between atoms: _355  and  _356
REMARK  146  A    between atoms: _355  and  _358
REMARK  147  A    between atoms: _358  and  _359
REMARK  148  A    between atoms: _362  and  _364
REMARK  149  A    between atoms: _364  and  _365
REMARK  150  A    between atoms: _364  and  _367
REMARK  151  A    between atoms: _367  and  _368
REMARK  152  A    between atoms: _371  and  _373
REMARK  153  A    between atoms: _373  and  _374
REMARK  154  A    between atoms: _376  and  _378
REMARK  155  A    between atoms: _378  and  _379
REMARK  156  A    between atoms: _382  and  _384
REMARK  157  A    between atoms: _384  and  _385
REMARK  158  A    between atoms: _384  and  _387
REMARK  159  A    between atoms: _387  and  _388
REMARK  160  A    between atoms: _391  and  _393
REMARK  161  A    between atoms: _393  and  _394
REMARK  162  A    between atoms: _393  and  _396
REMARK  163  A    between atoms: _396  and  _397
REMARK  164  A    between atoms: _400  and  _402
REMARK  165  A    between atoms: _402  and  _403
REMARK  166  A    between atoms: _402  and  _405
REMARK  167  A    between atoms: _405  and  _406
REMARK  168  A    between atoms: _409  and  _411
REMARK  169  A    between atoms: _411  and  _412
REMARK  170  A    between atoms: _411  and  _414
REMARK  171  A    between atoms: _417  and  _419
REMARK  172  A    between atoms: _419  and  _420
REMARK  173  A    between atoms: _419  and  _422
REMARK  174  A    between atoms: _422  and  _423
REMARK  175  A    between atoms: _426  and  _428
REMARK  176  A    between atoms: _428  and  _429
REMARK  177  A    between atoms: _428  and  _431
REMARK  178  A    between atoms: _431  and  _432
REMARK  179  A    between atoms: _432  and  _433
REMARK  180  A    between atoms: _433  and  _434
REMARK  181  A    between atoms: _434  and  _435
REMARK  182  A    between atoms: _439  and  _441
REMARK  183  A    between atoms: _441  and  _442
REMARK  184  A    between atoms: _441  and  _444
REMARK  185  A    between atoms: _444  and  _445
REMARK  186  A    between atoms: _448  and  _450
REMARK  187  A    between atoms: _450  and  _451
REMARK  188  A    between atoms: _453  and  _455
REMARK  189  A    between atoms: _455  and  _456
REMARK  190  A    between atoms: _458  and  _460
REMARK  191  A    between atoms: _460  and  _461
REMARK  192  A    between atoms: _460  and  _463
REMARK  193  A    between atoms: _463  and  _464
REMARK  194  A    between atoms: _467  and  _469
REMARK  195  A    between atoms: _469  and  _470
REMARK  196  A    between atoms: _472  and  _474
REMARK  197  A    between atoms: _474  and  _475
REMARK  198  A    between atoms: _477  and  _479
REMARK  199  A    between atoms: _479  and  _480
REMARK  200  A    between atoms: _479  and  _482
REMARK  201  A    between atoms: _482  and  _483
REMARK  202  A    between atoms: _489  and  _491
REMARK  203  A    between atoms: _491  and  _492
REMARK  204  A    between atoms: _491  and  _494
REMARK  205  A    between atoms: _494  and  _495
REMARK  206  A    between atoms: _498  and  _500
REMARK  207  A    between atoms: _500  and  _501
REMARK  208  A    between atoms: _500  and  _503
REMARK  209  A    between atoms: _506  and  _508
REMARK  210  A    between atoms: _508  and  _509
REMARK  211  A    between atoms: _508  and  _511
REMARK  212  A    between atoms: _511  and  _512
REMARK  213  A    between atoms: _516  and  _517
REMARK  214  A    between atoms: _522  and  _524
REMARK  215  A    between atoms: _524  and  _525
REMARK  216  A    between atoms: _524  and  _527
REMARK  217  A    between atoms: _527  and  _528
REMARK  218  A    between atoms: _532  and  _533
REMARK  219  A    between atoms: _538  and  _540
REMARK  220  A    between atoms: _540  and  _541
REMARK  221  A    between atoms: _540  and  _543
REMARK  222  A    between atoms: _546  and  _548
REMARK  223  A    between atoms: _548  and  _549
REMARK  224  A    between atoms: _548  and  _551
REMARK  225  A    between atoms: _551  and  _552
REMARK  226  A    between atoms: _557  and  _559
REMARK  227  A    between atoms: _559  and  _560
REMARK  228  A    between atoms: _559  and  _562
REMARK  229  A    between atoms: _562  and  _563
REMARK  230  A    between atoms: _566  and  _568
REMARK  231  A    between atoms: _568  and  _569
REMARK  232  A    between atoms: _568  and  _571
REMARK  233  A    between atoms: _571  and  _572
REMARK  234  A    between atoms: _575  and  _577
REMARK  235  A    between atoms: _577  and  _578
REMARK  236  A    between atoms: _580  and  _582
REMARK  237  A    between atoms: _582  and  _583
REMARK  238  A    between atoms: _582  and  _585
REMARK  239  A    between atoms: _585  and  _586
REMARK  240  A    between atoms: _586  and  _587
REMARK  241  A    between atoms: _587  and  _588
REMARK                            x       y       z     vdW  Elec       q    Type
REMARK                         _______ _______ _______ _____ _____    ______ ____
ROOT
ATOM      1  C   ALA A   6     -17.885  12.384  -5.651  0.00  0.00    +0.241 C 
ATOM      2  N   ASP A   7     -19.216  12.410  -5.664  0.00  0.00    -0.297 N 
ATOM      3  H   ASP A   7     -19.714  13.321  -5.605  0.00  0.00    +0.150 HD
ATOM      4  O   ALA A   6     -17.235  11.337  -5.699  0.00  0.00    -0.273 OA
ENDROOT
BRANCH   1   5
ATOM      5  CA  ALA A   6     -17.173  13.733  -5.584  0.00  0.00    +0.149 C 
ATOM      6  CB  ALA A   6     -16.364  13.932  -6.850  0.00  0.00    +0.031 C 
BRANCH   5   9
ATOM      7  C   GLY A   5     -16.684  14.486  -3.303  0.00  0.00    +0.243 C 
ATOM      8  O   GLY A   5     -17.801  14.984  -3.165  0.00  0.00    -0.273 OA
ATOM      9  N   ALA A   6     -16.299  13.866  -4.417  0.00  0.00    -0.297 N 
ATOM     10  H   ALA A   6     -15.342  13.461  -4.460  0.00  0.00    +0.150 HD
BRANCH   7  11
ATOM     11  CA  GLY A   5     -15.661  14.560  -2.180  0.00  0.00    +0.176 C 
BRANCH  11  14
ATOM     12  C   THR A   4     -14.360  12.537  -2.263  0.00  0.00    +0.243 C 
ATOM     13  O   THR A   4     -15.271  11.903  -1.733  0.00  0.00    -0.273 OA
ATOM     14  N   GLY A   5     -14.445  13.839  -2.510  0.00  0.00    -0.295 N 
ATOM     15  H   GLY A   5     -13.642  14.341  -2.939  0.00  0.00    +0.150 HD
BRANCH  12  16
ATOM     16  CA  THR A   4     -13.052  11.846  -2.641  0.00  0.00    +0.176 C 
BRANCH  16  18
ATOM     17  C   ASP A   3     -12.616  12.697  -4.906  0.00  0.00    +0.241 C 
ATOM     18  N   THR A   4     -12.263  12.605  -3.621  0.00  0.00    -0.295 N 
ATOM     19  H   THR A   4     -11.399  13.088  -3.303  0.00  0.00    +0.150 HD
ATOM     20  O   ASP A   3     -13.638  12.183  -5.359  0.00  0.00    -0.273 OA
BRANCH  17  21
ATOM     21  CA  ASP A   3     -11.706  13.525  -5.817  0.00  0.00    +0.160 C 
BRANCH  21  24
ATOM     22  C   LEU A   2      -9.551  12.752  -6.643  0.00  0.00    +0.241 C 
ATOM     23  O   LEU A   2      -8.943  13.287  -5.713  0.00  0.00    -0.273 OA
ATOM     24  N   ASP A   3     -10.875  12.771  -6.748  0.00  0.00    -0.297 N 
ATOM     25  H   ASP A   3     -11.330  12.234  -7.514  0.00  0.00    +0.150 HD
BRANCH  22  26
ATOM     26  CA  LEU A   2      -8.808  12.002  -7.740  0.00  0.00    +0.149 C 
BRANCH  26  28
ATOM     27  C   LEU A   1      -8.996  13.769  -9.408  0.00  0.00    +0.238 C 
ATOM     28  N   LEU A   2      -8.233  13.043  -8.593  0.00  0.00    -0.297 N 
ATOM     29  H   LEU A   2      -7.209  13.219  -8.562  0.00  0.00    +0.150 HD
ATOM     30  O   LEU A   1     -10.206  13.591  -9.517  0.00  0.00    -0.274 OA
BRANCH  27  31
ATOM     31  CA  LEU A   1      -8.301  14.857 -10.230  0.00  0.00    +0.145 C 
BRANCH  31  32
ATOM     32  N   LEU A   1      -8.448  14.670 -11.670  0.00  0.00    -0.238 NA
ATOM     33  H   LEU A   1      -9.285  15.077 -12.134  0.00  0.00    +0.142 HD
ENDBRANCH  31  32
BRANCH  31  34
ATOM     34  CB  LEU A   1      -8.884  16.222  -9.859  0.00  0.00    +0.026 C 
BRANCH  34  35
ATOM     35  CG  LEU A   1      -8.913  16.688  -8.405  0.00  0.00    +0.002 C 
ATOM     36  CD2 LEU A   1      -7.509  16.987  -7.930  0.00  0.00    +0.000 C 
ATOM     37  CD1 LEU A   1      -9.777  17.948  -8.311  0.00  0.00    +0.000 C 
ENDBRANCH  34  35
ENDBRANCH  31  34
ENDBRANCH  27  31
ENDBRANCH  26  28
BRANCH  26  38
ATOM     38  CB  LEU A   2      -7.707  11.124  -7.132  0.00  0.00    +0.029 C 
BRANCH  38  39
ATOM     39  CG  LEU A   2      -6.818  10.383  -8.132  0.00  0.00    +0.002 C 
ATOM     40  CD2 LEU A   2      -5.847   9.491  -7.387  0.00  0.00    +0.000 C 
ATOM     41  CD1 LEU A   2      -7.683   9.555  -9.085  0.00  0.00    +0.000 C 
ENDBRANCH  38  39
ENDBRANCH  26  38
ENDBRANCH  22  26
ENDBRANCH  21  24
BRANCH  21  42
ATOM     42  CB  ASP A   3     -12.548  14.489  -6.645  0.00  0.00    +0.143 C 
BRANCH  42  43
ATOM     43  CG  ASP A   3     -13.254  15.513  -5.813  0.00  0.00    +0.367 C 
ATOM     44  OD2 ASP A   3     -13.511  15.254  -4.620  0.00  0.00    -0.246 OA
ATOM     45  OD1 ASP A   3     -13.566  16.581  -6.372  0.00  0.00    -0.246 OA
ENDBRANCH  42  43
ENDBRANCH  21  42
ENDBRANCH  17  21
ENDBRANCH  16  18
BRANCH  16  46
ATOM     46  CB  THR A   4     -12.269  11.604  -1.319  0.00  0.00    +0.137 C 
ATOM     47  CG2 THR A   4     -11.057  10.727  -1.566  0.00  0.00    +0.034 C 
BRANCH  46  48
ATOM     48  OG1 THR A   4     -11.862  12.862  -0.758  0.00  0.00    -0.382 OA
ATOM     49  HG1 THR A   4     -12.663  13.412  -0.569  0.00  0.00    +0.210 HD
ENDBRANCH  46  48
ENDBRANCH  16  46
ENDBRANCH  12  16
ENDBRANCH  11  14
ENDBRANCH   7  11
ENDBRANCH   5   9
ENDBRANCH   1   5
BRANCH   2  50
ATOM     50  CA  ASP A   7     -19.983  11.171  -5.760  0.00  0.00    +0.160 C 
BRANCH  50  51
ATOM     51  C   ASP A   7     -19.829  10.572  -7.156  0.00  0.00    +0.241 C 
ATOM     52  O   ASP A   7     -19.805   9.359  -7.316  0.00  0.00    -0.273 OA
ATOM     53  N   ASP A   8     -19.713  11.426  -8.165  0.00  0.00    -0.297 N 
ATOM     54  H   ASP A   8     -19.691  12.448  -7.973  0.00  0.00    +0.150 HD
BRANCH  53  55
ATOM     55  CA  ASP A   8     -19.616  10.949  -9.540  0.00  0.00    +0.160 C 
BRANCH  55  56
ATOM     56  C   ASP A   8     -18.349  11.378 -10.266  0.00  0.00    +0.241 C 
ATOM     57  O   ASP A   8     -17.598  12.242  -9.805  0.00  0.00    -0.273 OA
ATOM     58  N   THR A   9     -18.136  10.767 -11.423  0.00  0.00    -0.295 N 
ATOM     59  H   THR A   9     -18.810  10.043 -11.743  0.00  0.00    +0.150 HD
BRANCH  58  60
ATOM     60  CA  THR A   9     -16.992  11.078 -12.254  0.00  0.00    +0.176 C 
BRANCH  60  61
ATOM     61  C   THR A   9     -17.487  12.025 -13.337  0.00  0.00    +0.243 C 
ATOM     62  N   VAL A  10     -16.822  13.164 -13.465  0.00  0.00    -0.297 N 
ATOM     63  H   VAL A  10     -15.998  13.347 -12.857  0.00  0.00    +0.150 HD
ATOM     64  O   THR A   9     -18.459  11.734 -14.036  0.00  0.00    -0.273 OA
BRANCH  62  65
ATOM     65  CA  VAL A  10     -17.226  14.164 -14.443  0.00  0.00    +0.149 C 
BRANCH  65  66
ATOM     66  C   VAL A  10     -16.065  14.586 -15.314  0.00  0.00    +0.241 C 
ATOM     67  O   VAL A  10     -15.035  15.033 -14.811  0.00  0.00    -0.273 OA
ATOM     68  N   LEU A  11     -16.240  14.457 -16.623  0.00  0.00    -0.298 N 
ATOM     69  H   LEU A  11     -17.135  14.070 -16.985  0.00  0.00    +0.150 HD
BRANCH  68  70
ATOM     70  CA  LEU A  11     -15.200  14.848 -17.558  0.00  0.00    +0.137 C 
BRANCH  70  71
ATOM     71  C   LEU A  11     -15.667  16.008 -18.435  0.00  0.00    +0.227 C 
ATOM     72  O   LEU A  11     -16.870  16.207 -18.650  0.00  0.00    -0.286 OA
ENDBRANCH  70  71
BRANCH  70  73
ATOM     73  CB  LEU A  11     -14.806  13.655 -18.433  0.00  0.00    +0.028 C 
BRANCH  73  74
ATOM     74  CG  LEU A  11     -14.230  12.452 -17.671  0.00  0.00    +0.002 C 
ATOM     75  CD2 LEU A  11     -12.914  12.832 -17.008  0.00  0.00    +0.000 C 
ATOM     76  CD1 LEU A  11     -14.032  11.288 -18.630  0.00  0.00    +0.000 C 
ENDBRANCH  73  74
ENDBRANCH  70  73
ENDBRANCH  68  70
ENDBRANCH  65  66
BRANCH  65  77
ATOM     77  CB  VAL A  10     -17.766  15.429 -13.748  0.00  0.00    +0.027 C 
ATOM     78  CG2 VAL A  10     -18.609  15.034 -12.540  0.00  0.00    +0.002 C 
ATOM     79  CG1 VAL A  10     -18.573  16.260 -14.732  0.00  0.00    +0.002 C 
ENDBRANCH  65  77
ENDBRANCH  62  65
ENDBRANCH  60  61
BRANCH  60  80
ATOM     80  CB  THR A   9     -16.408   9.802 -12.879  0.00  0.00    +0.137 C 
ATOM     81  CG2 THR A   9     -15.308  10.141 -13.887  0.00  0.00    +0.034 C 
BRANCH  80  82
ATOM     82  OG1 THR A   9     -15.865   8.984 -11.838  0.00  0.00    -0.382 OA
ATOM     83  HG1 THR A   9     -16.582   8.746 -11.198  0.00  0.00    +0.210 HD
ENDBRANCH  80  82
ENDBRANCH  60  80
ENDBRANCH  58  60
ENDBRANCH  55  56
BRANCH  55  84
ATOM     84  CB  ASP A   8     -20.822  11.447 -10.349  0.00  0.00    +0.143 C 
BRANCH  84  85
ATOM     85  CG  ASP A   8     -22.112  11.431  -9.551  0.00  0.00    +0.367 C 
ATOM     86  OD2 ASP A   8     -22.546  10.332  -9.152  0.00  0.00    -0.246 OA
ATOM     87  OD1 ASP A   8     -22.689  12.519  -9.317  0.00  0.00    -0.246 OA
ENDBRANCH  84  85
ENDBRANCH  55  84
ENDBRANCH  53  55
ENDBRANCH  50  51
BRANCH  50  88
ATOM     88  CB  ASP A   7     -21.486  11.401  -5.518  0.00  0.00    +0.143 C 
BRANCH  88  89
ATOM     89  CG  ASP A   7     -21.785  12.091  -4.196  0.00  0.00    +0.367 C 
ATOM     90  OD2 ASP A   7     -21.124  11.785  -3.180  0.00  0.00    -0.246 OA
ATOM     91  OD1 ASP A   7     -22.705  12.935  -4.177  0.00  0.00    -0.246 OA
ENDBRANCH  88  89
ENDBRANCH  50  88
ENDBRANCH   2  50
TORSDOF 39
REMARK  Name = ../refined-set-2016/2qnq/2qnq_pocket.pdb
REMARK  241 active torsions:
REMARK  status: ('A' for Active; 'I' for Inactive)
REMARK    1  A    between atoms: _1  and  _3
REMARK    2  A    between atoms: _3  and  _4
REMARK    3  A    between atoms: _3  and  _6
REMARK    4  A    between atoms: _6  and  _7
REMARK    5  A    between atoms: _7  and  _8
REMARK    6  A    between atoms: _8  and  _9
REMARK    7  A    between atoms: _18  and  _20
REMARK    8  A    between atoms: _20  and  _21
REMARK    9  A    between atoms: _20  and  _23
REMARK   10  A    between atoms: _23  and  _24
REMARK   11  A    between atoms: _27  and  _29
REMARK   12  A    between atoms: _29  and  _30
REMARK   13  A    between atoms: _29  and  _32
REMARK   14  A    between atoms: _32  and  _33
REMARK   15  A    between atoms: _36  and  _38
REMARK   16  A    between atoms: _38  and  _39
REMARK   17  A    between atoms: _38  and  _41
REMARK   18  A    between atoms: _41  and  _42
REMARK   19  A    between atoms: _45  and  _47
REMARK   20  A    between atoms: _47  and  _48
REMARK   21  A    between atoms: _47  and  _50
REMARK   22  A    between atoms: _50  and  _51
REMARK   23  A    between atoms: _54  and  _56
REMARK   24  A    between atoms: _56  and  _57
REMARK   25  A    between atoms: _56  and  _59
REMARK   26  A    between atoms: _59  and  _60
REMARK   27  A    between atoms: _63  and  _65
REMARK   28  A    between atoms: _65  and  _66
REMARK   29  A    between atoms: _68  and  _70
REMARK   30  A    between atoms: _70  and  _71
REMARK   31  A    between atoms: _74  and  _76
REMARK   32  A    between atoms: _76  and  _77
REMARK   33  A    between atoms: _76  and  _79
REMARK   34  A    between atoms: _79  and  _80
REMARK   35  A    between atoms: _83  and  _85
REMARK   36  A    between atoms: _85  and  _86
REMARK   37  A    between atoms: _85  and  _88
REMARK   38  A    between atoms: _88  and  _89
REMARK   39  A    between atoms: _92  and  _94
REMARK   40  A    between atoms: _94  and  _95
REMARK   41  A    between atoms: _94  and  _97
REMARK   42  A    between atoms: _97  and  _98
REMARK   43  A    between atoms: _101  and  _103
REMARK   44  A    between atoms: _103  and  _104
REMARK   45  A    between atoms: _103  and  _106
REMARK   46  A    between atoms: _109  and  _111
REMARK   47  A    between atoms: _111  and  _112
REMARK   48  A    between atoms: _111  and  _114
REMARK   49  A    between atoms: _114  and  _115
REMARK   50  A    between atoms: _118  and  _120
REMARK   51  A    between atoms: _120  and  _121
REMARK   52  A    between atoms: _120  and  _123
REMARK   53  A    between atoms: _123  and  _124
REMARK   54  A    between atoms: _124  and  _125
REMARK   55  A    between atoms: _125  and  _126
REMARK   56  A    between atoms: _126  and  _127
REMARK   57  A    between atoms: _131  and  _133
REMARK   58  A    between atoms: _133  and  _134
REMARK   59  A    between atoms: _133  and  _136
REMARK   60  A    between atoms: _136  and  _137
REMARK   61  A    between atoms: _137  and  _138
REMARK   62  A    between atoms: _140  and  _142
REMARK   63  A    between atoms: _142  and  _143
REMARK   64  A    between atoms: _142  and  _145
REMARK   65  A    between atoms: _145  and  _146
REMARK   66  A    between atoms: _149  and  _151
REMARK   67  A    between atoms: _151  and  _152
REMARK   68  A    between atoms: _154  and  _156
REMARK   69  A    between atoms: _156  and  _157
REMARK   70  A    between atoms: _159  and  _161
REMARK   71  A    between atoms: _161  and  _162
REMARK   72  A    between atoms: _161  and  _164
REMARK   73  A    between atoms: _164  and  _165
REMARK   74  A    between atoms: _168  and  _170
REMARK   75  A    between atoms: _170  and  _171
REMARK   76  A    between atoms: _173  and  _175
REMARK   77  A    between atoms: _175  and  _176
REMARK   78  A    between atoms: _178  and  _180
REMARK   79  A    between atoms: _180  and  _181
REMARK   80  A    between atoms: _180  and  _183
REMARK   81  A    between atoms: _183  and  _184
REMARK   82  A    between atoms: _190  and  _192
REMARK   83  A    between atoms: _192  and  _193
REMARK   84  A    between atoms: _192  and  _195
REMARK   85  A    between atoms: _195  and  _196
REMARK   86  A    between atoms: _199  and  _201
REMARK   87  A    between atoms: _201  and  _202
REMARK   88  A    between atoms: _201  and  _204
REMARK   89  A    between atoms: _207  and  _209
REMARK   90  A    between atoms: _209  and  _210
REMARK   91  A    between atoms: _209  and  _212
REMARK   92  A    between atoms: _212  and  _213
REMARK   93  A    between atoms: _216  and  _218
REMARK   94  A    between atoms: _218  and  _219
REMARK   95  A    between atoms: _218  and  _221
REMARK   96  A    between atoms: _221  and  _222
REMARK   97  A    between atoms: _226  and  _227
REMARK   98  A    between atoms: _232  and  _234
REMARK   99  A    between atoms: _234  and  _235
REMARK  100  A    between atoms: _234  and  _237
REMARK  101  A    between atoms: _240  and  _242
REMARK  102  A    between atoms: _242  and  _243
REMARK  103  A    between atoms: _242  and  _245
REMARK  104  A    between atoms: _245  and  _246
REMARK  105  A    between atoms: _251  and  _253
REMARK  106  A    between atoms: _253  and  _254
REMARK  107  A    between atoms: _253  and  _256
REMARK  108  A    between atoms: _256  and  _257
REMARK  109  A    between atoms: _260  and  _262
REMARK  110  A    between atoms: _262  and  _263
REMARK  111  A    between atoms: _262  and  _265
REMARK  112  A    between atoms: _265  and  _266
REMARK  113  A    between atoms: _269  and  _271
REMARK  114  A    between atoms: _271  and  _272
REMARK  115  A    between atoms: _274  and  _276
REMARK  116  A    between atoms: _276  and  _277
REMARK  117  A    between atoms: _276  and  _279
REMARK  118  A    between atoms: _279  and  _280
REMARK  119  A    between atoms: _280  and  _281
REMARK  120  A    between atoms: _281  and  _282
REMARK  121  A    between atoms: _291  and  _293
REMARK  122  A    between atoms: _293  and  _294
REMARK  123  A    between atoms: _293  and  _296
REMARK  124  A    between atoms: _296  and  _297
REMARK  125  A    between atoms: _302  and  _304
REMARK  126  A    between atoms: _304  and  _305
REMARK  127  A    between atoms: _304  and  _307
REMARK  128  A    between atoms: _307  and  _308
REMARK  129  A    between atoms: _308  and  _309
REMARK  130  A    between atoms: _309  and  _310
REMARK  131  A    between atoms: _320  and  _321
REMARK  132  A    between atoms: _326  and  _328
REMARK  133  A    between atoms: _328  and  _329
REMARK  134  A    between atoms: _328  and  _331
REMARK  135  A    between atoms: _331  and  _332
REMARK  136  A    between atoms: _335  and  _337
REMARK  137  A    between atoms: _337  and  _338
REMARK  138  A    between atoms: _337  and  _340
REMARK  139  A    between atoms: _340  and  _341
REMARK  140  A    between atoms: _344  and  _346
REMARK  141  A    between atoms: _346  and  _347
REMARK  142  A    between atoms: _346  and  _349
REMARK  143  A    between atoms: _349  and  _350
REMARK  144  A    between atoms: _353  and  _355
REMARK  145  A    between atoms: _355  and  _356
REMARK  146  A    between atoms: _355  and  _358
REMARK  147  A    between atoms: _358  and  _359
REMARK  148  A    between atoms: _362  and  _364
REMARK  149  A    between atoms: _364  and  _365
REMARK  150  A    between atoms: _364  and  _367
REMARK  151  A    between atoms: _367  and  _368
REMARK  152  A    between atoms: _371  and  _373
REMARK  153  A    between atoms: _373  and  _374
REMARK  154  A    between atoms: _376  and  _378
REMARK  155  A    between atoms: _378  and  _379
REMARK  156  A    between atoms: _382  and  _384
REMARK  157  A    between atoms: _384  and  _385
REMARK  158  A    between atoms: _384  and  _387
REMARK  159  A    between atoms: _387  and  _388
REMARK  160  A    between atoms: _391  and  _393
REMARK  161  A    between atoms: _393  and  _394
REMARK  162  A    between atoms: _393  and  _396
REMARK  163  A    between atoms: _396  and  _397
REMARK  164  A    between atoms: _400  and  _402
REMARK  165  A    between atoms: _402  and  _403
REMARK  166  A    between atoms: _402  and  _405
REMARK  167  A    between atoms: _405  and  _406
REMARK  168  A    between atoms: _409  and  _411
REMARK  169  A    between atoms: _411  and  _412
REMARK  170  A    between atoms: _411  and  _414
REMARK  171  A    between atoms: _417  and  _419
REMARK  172  A    between atoms: _419  and  _420
REMARK  173  A    between atoms: _419  and  _422
REMARK  174  A    between atoms: _422  and  _423
REMARK  175  A    between atoms: _426  and  _428
REMARK  176  A    between atoms: _428  and  _429
REMARK  177  A    between atoms: _428  and  _431
REMARK  178  A    between atoms: _431  and  _432
REMARK  179  A    between atoms: _432  and  _433
REMARK  180  A    between atoms: _433  and  _434
REMARK  181  A    between atoms: _434  and  _435
REMARK  182  A    between atoms: _439  and  _441
REMARK  183  A    between atoms: _441  and  _442
REMARK  184  A    between atoms: _441  and  _444
REMARK  185  A    between atoms: _444  and  _445
REMARK  186  A    between atoms: _448  and  _450
REMARK  187  A    between atoms: _450  and  _451
REMARK  188  A    between atoms: _453  and  _455
REMARK  189  A    between atoms: _455  and  _456
REMARK  190  A    between atoms: _458  and  _460
REMARK  191  A    between atoms: _460  and  _461
REMARK  192  A    between atoms: _460  and  _463
REMARK  193  A    between atoms: _463  and  _464
REMARK  194  A    between atoms: _467  and  _469
REMARK  195  A    between atoms: _469  and  _470
REMARK  196  A    between atoms: _472  and  _474
REMARK  197  A    between atoms: _474  and  _475
REMARK  198  A    between atoms: _477  and  _479
REMARK  199  A    between atoms: _479  and  _480
REMARK  200  A    between atoms: _479  and  _482
REMARK  201  A    between atoms: _482  and  _483
REMARK  202  A    between atoms: _489  and  _491
REMARK  203  A    between atoms: _491  and  _492
REMARK  204  A    between atoms: _491  and  _494
REMARK  205  A    between atoms: _494  and  _495
REMARK  206  A    between atoms: _498  and  _500
REMARK  207  A    between atoms: _500  and  _501
REMARK  208  A    between atoms: _500  and  _503
REMARK  209  A    between atoms: _506  and  _508
REMARK  210  A    between atoms: _508  and  _509
REMARK  211  A    between atoms: _508  and  _511
REMARK  212  A    between atoms: _511  and  _512
REMARK  213  A    between atoms: _516  and  _517
REMARK  214  A    between atoms: _522  and  _524
REMARK  215  A    between atoms: _524  and  _525
REMARK  216  A    between atoms: _524  and  _527
REMARK  217  A    between atoms: _527  and  _528
REMARK  218  A    between atoms: _532  and  _533
REMARK  219  A    between atoms: _538  and  _540
REMARK  220  A    between atoms: _540  and  _541
REMARK  221  A    between atoms: _540  and  _543
REMARK  222  A    between atoms: _546  and  _548
REMARK  223  A    between atoms: _548  and  _549
REMARK  224  A    between atoms: _548  and  _551
REMARK  225  A    between atoms: _551  and  _552
REMARK  226  A    between atoms: _557  and  _559
REMARK  227  A    between atoms: _559  and  _560
REMARK  228  A    between atoms: _559  and  _562
REMARK  229  A    between atoms: _562  and  _563
REMARK  230  A    between atoms: _566  and  _568
REMARK  231  A    between atoms: _568  and  _569
REMARK  232  A    between atoms: _568  and  _571
REMARK  233  A    between atoms: _571  and  _572
REMARK  234  A    between atoms: _575  and  _577
REMARK  235  A    between atoms: _577  and  _578
REMARK  236  A    between atoms: _580  and  _582
REMARK  237  A    between atoms: _582  and  _583
REMARK  238  A    between atoms: _582  and  _585
REMARK  239  A    between atoms: _585  and  _586
REMARK  240  A    between atoms: _586  and  _587
REMARK  241  A    between atoms: _587  and  _588
REMARK                            x       y       z     vdW  Elec       q    Type
REMARK                         _______ _______ _______ _____ _____    ______ ____
ROOT
ATOM      1  C   GLY A   5     -21.655  24.293  -5.598  0.00  0.00    +0.243 C 
ATOM      2  N   ILE A   6     -20.452  24.608  -5.126  0.00  0.00    -0.297 N 
ATOM      3  H   ILE A   6     -19.833  23.859  -4.757  0.00  0.00    +0.150 HD
ATOM      4  O   GLY A   5     -22.445  25.132  -6.043  0.00  0.00    -0.273 OA
ENDROOT
BRANCH   1   5
ATOM      5  CA  GLY A   5     -22.039  22.831  -5.583  0.00  0.00    +0.176 C 
BRANCH   5   8
ATOM      6  C   GLY A   4     -23.208  21.370  -7.132  0.00  0.00    +0.243 C 
ATOM      7  O   GLY A   4     -23.036  20.371  -6.429  0.00  0.00    -0.273 OA
ATOM      8  N   GLY A   5     -22.769  22.581  -6.810  0.00  0.00    -0.295 N 
ATOM      9  H   GLY A   5     -22.954  23.374  -7.457  0.00  0.00    +0.150 HD
BRANCH   6  10
ATOM     10  CA  GLY A   4     -23.949  21.292  -8.450  0.00  0.00    +0.176 C 
BRANCH  10  12
ATOM     11  C   ILE A   3     -24.411  19.760 -10.228  0.00  0.00    +0.241 C 
ATOM     12  N   GLY A   4     -24.280  19.963  -8.922  0.00  0.00    -0.295 N 
ATOM     13  H   GLY A   4     -24.413  19.181  -8.249  0.00  0.00    +0.150 HD
ATOM     14  O   ILE A   3     -24.255  20.662 -11.059  0.00  0.00    -0.273 OA
BRANCH  11  15
ATOM     15  CA  ILE A   3     -24.788  18.353 -10.673  0.00  0.00    +0.149 C 
BRANCH  15  18
ATOM     16  C   MET A   2     -26.842  17.928 -11.887  0.00  0.00    +0.241 C 
ATOM     17  O   MET A   2     -27.271  17.212 -10.982  0.00  0.00    -0.273 OA
ATOM     18  N   ILE A   3     -25.640  18.491 -11.847  0.00  0.00    -0.297 N 
ATOM     19  H   ILE A   3     -25.302  19.038 -12.665  0.00  0.00    +0.150 HD
BRANCH  16  20
ATOM     20  CA  MET A   2     -27.679  18.182 -13.131  0.00  0.00    +0.149 C 
BRANCH  20  22
ATOM     21  C   LYS A   1     -27.961  16.507 -14.866  0.00  0.00    +0.238 C 
ATOM     22  N   MET A   2     -28.194  16.912 -13.625  0.00  0.00    -0.297 N 
ATOM     23  H   MET A   2     -28.757  16.310 -12.991  0.00  0.00    +0.150 HD
ATOM     24  O   LYS A   1     -27.322  17.179 -15.676  0.00  0.00    -0.274 OA
BRANCH  21  25
ATOM     25  CA  LYS A   1     -28.535  15.154 -15.261  0.00  0.00    +0.145 C 
BRANCH  25  26
ATOM     26  N   LYS A   1     -28.615  15.116 -16.715  0.00  0.00    -0.238 NA
ATOM     27  H   LYS A   1     -27.967  15.716 -17.265  0.00  0.00    +0.142 HD
ENDBRANCH  25  26
BRANCH  25  28
ATOM     28  CB  LYS A   1     -27.616  14.032 -14.771  0.00  0.00    +0.026 C 
BRANCH  28  29
ATOM     29  CG  LYS A   1     -27.383  13.964 -13.267  0.00  0.00    -0.000 C 
BRANCH  29  30
ATOM     30  CD  LYS A   1     -26.336  12.899 -12.973  0.00  0.00    -0.024 C 
BRANCH  30  31
ATOM     31  CE  LYS A   1     -26.088  12.708 -11.488  0.00  0.00    -0.086 C 
BRANCH  31  32
ATOM     32  NZ  LYS A   1     -27.258  12.098 -10.807  0.00  0.00    +0.380 N 
ATOM     33  HZ1 LYS A   1     -27.048  11.984  -9.795  0.00  0.00    -0.089 HD
ATOM     34  HZ2 LYS A   1     -28.086  12.716 -10.923  0.00  0.00    -0.089 HD
ATOM     35  HZ3 LYS A   1     -27.456  11.168 -11.228  0.00  0.00    -0.089 HD
ENDBRANCH  31  32
ENDBRANCH  30  31
ENDBRANCH  29  30
ENDBRANCH  28  29
ENDBRANCH  25  28
ENDBRANCH  21  25
ENDBRANCH  20  22
BRANCH  20  36
ATOM     36  CB  MET A   2     -28.831  19.125 -12.766  0.00  0.00    +0.041 C 
BRANCH  36  37
ATOM     37  CG  MET A   2     -29.691  19.582 -13.933  0.00  0.00    +0.060 C 
BRANCH  37  38
ATOM     38  SD  MET A   2     -28.957  20.940 -14.850  0.00  0.00    -0.139 S 
ATOM     39  CE  MET A   2     -29.482  22.330 -13.850  0.00  0.00    +0.069 C 
ENDBRANCH  37  38
ENDBRANCH  36  37
ENDBRANCH  20  36
ENDBRANCH  16  20
ENDBRANCH  15  18
BRANCH  15  40
ATOM     40  CB  ILE A   3     -23.509  17.527 -10.961  0.00  0.00    +0.027 C 
ATOM     41  CG2 ILE A   3     -23.881  16.070 -11.209  0.00  0.00    +0.002 C 
BRANCH  40  42
ATOM     42  CG1 ILE A   3     -22.751  18.113 -12.148  0.00  0.00    +0.002 C 
ATOM     43  CD1 ILE A   3     -21.406  17.453 -12.392  0.00  0.00    +0.000 C 
ENDBRANCH  40  42
ENDBRANCH  15  40
ENDBRANCH  11  15
ENDBRANCH  10  12
ENDBRANCH   6  10
ENDBRANCH   5   8
ENDBRANCH   1   5
BRANCH   2  44
ATOM     44  CA  ILE A   6     -19.991  25.991  -5.120  0.00  0.00    +0.149 C 
BRANCH  44  45
ATOM     45  C   ILE A   6     -20.130  26.544  -6.538  0.00  0.00    +0.241 C 
ATOM     46  N   GLY A   7     -20.790  27.690  -6.671  0.00  0.00    -0.295 N 
ATOM     47  H   GLY A   7     -21.193  28.153  -5.831  0.00  0.00    +0.150 HD
ATOM     48  O   ILE A   6     -19.663  25.928  -7.495  0.00  0.00    -0.273 OA
BRANCH  46  49
ATOM     49  CA  GLY A   7     -20.954  28.301  -7.979  0.00  0.00    +0.176 C 
BRANCH  49  50
ATOM     50  C   GLY A   7     -22.264  27.972  -8.672  0.00  0.00    +0.243 C 
ATOM     51  N   GLY A   8     -22.963  26.957  -8.174  0.00  0.00    -0.295 N 
ATOM     52  H   GLY A   8     -22.603  26.432  -7.352  0.00  0.00    +0.150 HD
ATOM     53  O   GLY A   7     -22.635  28.625  -9.652  0.00  0.00    -0.273 OA
BRANCH  51  54
ATOM     54  CA  GLY A   8     -24.228  26.580  -8.776  0.00  0.00    +0.176 C 
BRANCH  54  55
ATOM     55  C   GLY A   8     -24.203  25.212  -9.430  0.00  0.00    +0.243 C 
ATOM     56  O   GLY A   8     -23.374  24.364  -9.088  0.00  0.00    -0.273 OA
ATOM     57  N   PHE A   9     -25.114  25.000 -10.375  0.00  0.00    -0.297 N 
ATOM     58  H   PHE A   9     -25.776  25.764 -10.619  0.00  0.00    +0.150 HD
BRANCH  57  59
ATOM     59  CA  PHE A   9     -25.210  23.726 -11.079  0.00  0.00    +0.153 C 
BRANCH  59  60
ATOM     60  C   PHE A   9     -24.871  23.805 -12.568  0.00  0.00    +0.241 C 
ATOM     61  N   ILE A  10     -24.522  22.656 -13.136  0.00  0.00    -0.298 N 
ATOM     62  H   ILE A  10     -24.457  21.803 -12.545  0.00  0.00    +0.150 HD
ATOM     63  O   PHE A   9     -24.924  24.872 -13.184  0.00  0.00    -0.273 OA
BRANCH  61  64
ATOM     64  CA  ILE A  10     -24.227  22.550 -14.560  0.00  0.00    +0.137 C 
BRANCH  64  65
ATOM     65  CB  ILE A  10     -22.711  22.379 -14.843  0.00  0.00    +0.026 C 
ATOM     66  CG2 ILE A  10     -21.951  23.581 -14.314  0.00  0.00    +0.002 C 
BRANCH  65  67
ATOM     67  CG1 ILE A  10     -22.194  21.087 -14.206  0.00  0.00    +0.002 C 
ATOM     68  CD1 ILE A  10     -20.790  20.710 -14.631  0.00  0.00    +0.000 C 
ENDBRANCH  65  67
ENDBRANCH  64  65
BRANCH  64  69
ATOM     69  C   ILE A  10     -24.976  21.316 -15.065  0.00  0.00    +0.227 C 
ATOM     70  O   ILE A  10     -25.285  20.402 -14.293  0.00  0.00    -0.286 OA
ENDBRANCH  64  69
ENDBRANCH  61  64
ENDBRANCH  59  60
BRANCH  59  71
ATOM     71  CB  PHE A   9     -26.625  23.150 -10.953  0.00  0.00    +0.055 C 
BRANCH  71  72
ATOM     72  CG  PHE A   9     -26.991  22.711  -9.568  0.00  0.00    -0.020 A 
ATOM     73  CD2 PHE A   9     -27.152  23.638  -8.547  0.00  0.00    -0.004 A 
ATOM     74  CE2 PHE A   9     -27.533  23.232  -7.272  0.00  0.00    -0.000 A 
ATOM     75  CZ  PHE A   9     -27.753  21.886  -7.010  0.00  0.00    -0.000 A 
ATOM     76  CE1 PHE A   9     -27.591  20.949  -8.023  0.00  0.00    -0.000 A 
ATOM     77  CD1 PHE A   9     -27.212  21.366  -9.294  0.00  0.00    -0.004 A 
ENDBRANCH  71  72
ENDBRANCH  59  71
ENDBRANCH  57  59
ENDBRANCH  54  55
ENDBRANCH  51  54
ENDBRANCH  49  50
ENDBRANCH  46  49
ENDBRANCH  44  45
BRANCH  44  78
ATOM     78  CB  ILE A   6     -18.500  26.090  -4.690  0.00  0.00    +0.027 C 
ATOM     79  CG2 ILE A   6     -17.968  27.502  -4.935  0.00  0.00    +0.002 C 
BRANCH  78  80
ATOM     80  CG1 ILE A   6     -18.348  25.708  -3.217  0.00  0.00    +0.002 C 
ATOM     81  CD1 ILE A   6     -19.145  26.574  -2.271  0.00  0.00    +0.000 C 
ENDBRANCH  78  80
ENDBRANCH  44  78
ENDBRANCH   2  44
TORSDOF 36
REMARK  Name = ../refined-set-2016/2qnq/2qnq_pocket.pdb
REMARK  241 active torsions:
REMARK  status: ('A' for Active; 'I' for Inactive)
REMARK    1  A    between atoms: _1  and  _3
REMARK    2  A    between atoms: _3  and  _4
REMARK    3  A    between atoms: _3  and  _6
REMARK    4  A    between atoms: _6  and  _7
REMARK    5  A    between atoms: _7  and  _8
REMARK    6  A    between atoms: _8  and  _9
REMARK    7  A    between atoms: _18  and  _20
REMARK    8  A    between atoms: _20  and  _21
REMARK    9  A    between atoms: _20  and  _23
REMARK   10  A    between atoms: _23  and  _24
REMARK   11  A    between atoms: _27  and  _29
REMARK   12  A    between atoms: _29  and  _30
REMARK   13  A    between atoms: _29  and  _32
REMARK   14  A    between atoms: _32  and  _33
REMARK   15  A    between atoms: _36  and  _38
REMARK   16  A    between atoms: _38  and  _39
REMARK   17  A    between atoms: _38  and  _41
REMARK   18  A    between atoms: _41  and  _42
REMARK   19  A    between atoms: _45  and  _47
REMARK   20  A    between atoms: _47  and  _48
REMARK   21  A    between atoms: _47  and  _50
REMARK   22  A    between atoms: _50  and  _51
REMARK   23  A    between atoms: _54  and  _56
REMARK   24  A    between atoms: _56  and  _57
REMARK   25  A    between atoms: _56  and  _59
REMARK   26  A    between atoms: _59  and  _60
REMARK   27  A    between atoms: _63  and  _65
REMARK   28  A    between atoms: _65  and  _66
REMARK   29  A    between atoms: _68  and  _70
REMARK   30  A    between atoms: _70  and  _71
REMARK   31  A    between atoms: _74  and  _76
REMARK   32  A    between atoms: _76  and  _77
REMARK   33  A    between atoms: _76  and  _79
REMARK   34  A    between atoms: _79  and  _80
REMARK   35  A    between atoms: _83  and  _85
REMARK   36  A    between atoms: _85  and  _86
REMARK   37  A    between atoms: _85  and  _88
REMARK   38  A    between atoms: _88  and  _89
REMARK   39  A    between atoms: _92  and  _94
REMARK   40  A    between atoms: _94  and  _95
REMARK   41  A    between atoms: _94  and  _97
REMARK   42  A    between atoms: _97  and  _98
REMARK   43  A    between atoms: _101  and  _103
REMARK   44  A    between atoms: _103  and  _104
REMARK   45  A    between atoms: _103  and  _106
REMARK   46  A    between atoms: _109  and  _111
REMARK   47  A    between atoms: _111  and  _112
REMARK   48  A    between atoms: _111  and  _114
REMARK   49  A    between atoms: _114  and  _115
REMARK   50  A    between atoms: _118  and  _120
REMARK   51  A    between atoms: _120  and  _121
REMARK   52  A    between atoms: _120  and  _123
REMARK   53  A    between atoms: _123  and  _124
REMARK   54  A    between atoms: _124  and  _125
REMARK   55  A    between atoms: _125  and  _126
REMARK   56  A    between atoms: _126  and  _127
REMARK   57  A    between atoms: _131  and  _133
REMARK   58  A    between atoms: _133  and  _134
REMARK   59  A    between atoms: _133  and  _136
REMARK   60  A    between atoms: _136  and  _137
REMARK   61  A    between atoms: _137  and  _138
REMARK   62  A    between atoms: _140  and  _142
REMARK   63  A    between atoms: _142  and  _143
REMARK   64  A    between atoms: _142  and  _145
REMARK   65  A    between atoms: _145  and  _146
REMARK   66  A    between atoms: _149  and  _151
REMARK   67  A    between atoms: _151  and  _152
REMARK   68  A    between atoms: _154  and  _156
REMARK   69  A    between atoms: _156  and  _157
REMARK   70  A    between atoms: _159  and  _161
REMARK   71  A    between atoms: _161  and  _162
REMARK   72  A    between atoms: _161  and  _164
REMARK   73  A    between atoms: _164  and  _165
REMARK   74  A    between atoms: _168  and  _170
REMARK   75  A    between atoms: _170  and  _171
REMARK   76  A    between atoms: _173  and  _175
REMARK   77  A    between atoms: _175  and  _176
REMARK   78  A    between atoms: _178  and  _180
REMARK   79  A    between atoms: _180  and  _181
REMARK   80  A    between atoms: _180  and  _183
REMARK   81  A    between atoms: _183  and  _184
REMARK   82  A    between atoms: _190  and  _192
REMARK   83  A    between atoms: _192  and  _193
REMARK   84  A    between atoms: _192  and  _195
REMARK   85  A    between atoms: _195  and  _196
REMARK   86  A    between atoms: _199  and  _201
REMARK   87  A    between atoms: _201  and  _202
REMARK   88  A    between atoms: _201  and  _204
REMARK   89  A    between atoms: _207  and  _209
REMARK   90  A    between atoms: _209  and  _210
REMARK   91  A    between atoms: _209  and  _212
REMARK   92  A    between atoms: _212  and  _213
REMARK   93  A    between atoms: _216  and  _218
REMARK   94  A    between atoms: _218  and  _219
REMARK   95  A    between atoms: _218  and  _221
REMARK   96  A    between atoms: _221  and  _222
REMARK   97  A    between atoms: _226  and  _227
REMARK   98  A    between atoms: _232  and  _234
REMARK   99  A    between atoms: _234  and  _235
REMARK  100  A    between atoms: _234  and  _237
REMARK  101  A    between atoms: _240  and  _242
REMARK  102  A    between atoms: _242  and  _243
REMARK  103  A    between atoms: _242  and  _245
REMARK  104  A    between atoms: _245  and  _246
REMARK  105  A    between atoms: _251  and  _253
REMARK  106  A    between atoms: _253  and  _254
REMARK  107  A    between atoms: _253  and  _256
REMARK  108  A    between atoms: _256  and  _257
REMARK  109  A    between atoms: _260  and  _262
REMARK  110  A    between atoms: _262  and  _263
REMARK  111  A    between atoms: _262  and  _265
REMARK  112  A    between atoms: _265  and  _266
REMARK  113  A    between atoms: _269  and  _271
REMARK  114  A    between atoms: _271  and  _272
REMARK  115  A    between atoms: _274  and  _276
REMARK  116  A    between atoms: _276  and  _277
REMARK  117  A    between atoms: _276  and  _279
REMARK  118  A    between atoms: _279  and  _280
REMARK  119  A    between atoms: _280  and  _281
REMARK  120  A    between atoms: _281  and  _282
REMARK  121  A    between atoms: _291  and  _293
REMARK  122  A    between atoms: _293  and  _294
REMARK  123  A    between atoms: _293  and  _296
REMARK  124  A    between atoms: _296  and  _297
REMARK  125  A    between atoms: _302  and  _304
REMARK  126  A    between atoms: _304  and  _305
REMARK  127  A    between atoms: _304  and  _307
REMARK  128  A    between atoms: _307  and  _308
REMARK  129  A    between atoms: _308  and  _309
REMARK  130  A    between atoms: _309  and  _310
REMARK  131  A    between atoms: _320  and  _321
REMARK  132  A    between atoms: _326  and  _328
REMARK  133  A    between atoms: _328  and  _329
REMARK  134  A    between atoms: _328  and  _331
REMARK  135  A    between atoms: _331  and  _332
REMARK  136  A    between atoms: _335  and  _337
REMARK  137  A    between atoms: _337  and  _338
REMARK  138  A    between atoms: _337  and  _340
REMARK  139  A    between atoms: _340  and  _341
REMARK  140  A    between atoms: _344  and  _346
REMARK  141  A    between atoms: _346  and  _347
REMARK  142  A    between atoms: _346  and  _349
REMARK  143  A    between atoms: _349  and  _350
REMARK  144  A    between atoms: _353  and  _355
REMARK  145  A    between atoms: _355  and  _356
REMARK  146  A    between atoms: _355  and  _358
REMARK  147  A    between atoms: _358  and  _359
REMARK  148  A    between atoms: _362  and  _364
REMARK  149  A    between atoms: _364  and  _365
REMARK  150  A    between atoms: _364  and  _367
REMARK  151  A    between atoms: _367  and  _368
REMARK  152  A    between atoms: _371  and  _373
REMARK  153  A    between atoms: _373  and  _374
REMARK  154  A    between atoms: _376  and  _378
REMARK  155  A    between atoms: _378  and  _379
REMARK  156  A    between atoms: _382  and  _384
REMARK  157  A    between atoms: _384  and  _385
REMARK  158  A    between atoms: _384  and  _387
REMARK  159  A    between atoms: _387  and  _388
REMARK  160  A    between atoms: _391  and  _393
REMARK  161  A    between atoms: _393  and  _394
REMARK  162  A    between atoms: _393  and  _396
REMARK  163  A    between atoms: _396  and  _397
REMARK  164  A    between atoms: _400  and  _402
REMARK  165  A    between atoms: _402  and  _403
REMARK  166  A    between atoms: _402  and  _405
REMARK  167  A    between atoms: _405  and  _406
REMARK  168  A    between atoms: _409  and  _411
REMARK  169  A    between atoms: _411  and  _412
REMARK  170  A    between atoms: _411  and  _414
REMARK  171  A    between atoms: _417  and  _419
REMARK  172  A    between atoms: _419  and  _420
REMARK  173  A    between atoms: _419  and  _422
REMARK  174  A    between atoms: _422  and  _423
REMARK  175  A    between atoms: _426  and  _428
REMARK  176  A    between atoms: _428  and  _429
REMARK  177  A    between atoms: _428  and  _431
REMARK  178  A    between atoms: _431  and  _432
REMARK  179  A    between atoms: _432  and  _433
REMARK  180  A    between atoms: _433  and  _434
REMARK  181  A    between atoms: _434  and  _435
REMARK  182  A    between atoms: _439  and  _441
REMARK  183  A    between atoms: _441  and  _442
REMARK  184  A    between atoms: _441  and  _444
REMARK  185  A    between atoms: _444  and  _445
REMARK  186  A    between atoms: _448  and  _450
REMARK  187  A    between atoms: _450  and  _451
REMARK  188  A    between atoms: _453  and  _455
REMARK  189  A    between atoms: _455  and  _456
REMARK  190  A    between atoms: _458  and  _460
REMARK  191  A    between atoms: _460  and  _461
REMARK  192  A    between atoms: _460  and  _463
REMARK  193  A    between atoms: _463  and  _464
REMARK  194  A    between atoms: _467  and  _469
REMARK  195  A    between atoms: _469  and  _470
REMARK  196  A    between atoms: _472  and  _474
REMARK  197  A    between atoms: _474  and  _475
REMARK  198  A    between atoms: _477  and  _479
REMARK  199  A    between atoms: _479  and  _480
REMARK  200  A    between atoms: _479  and  _482
REMARK  201  A    between atoms: _482  and  _483
REMARK  202  A    between atoms: _489  and  _491
REMARK  203  A    between atoms: _491  and  _492
REMARK  204  A    between atoms: _491  and  _494
REMARK  205  A    between atoms: _494  and  _495
REMARK  206  A    between atoms: _498  and  _500
REMARK  207  A    between atoms: _500  and  _501
REMARK  208  A    between atoms: _500  and  _503
REMARK  209  A    between atoms: _506  and  _508
REMARK  210  A    between atoms: _508  and  _509
REMARK  211  A    between atoms: _508  and  _511
REMARK  212  A    between atoms: _511  and  _512
REMARK  213  A    between atoms: _516  and  _517
REMARK  214  A    between atoms: _522  and  _524
REMARK  215  A    between atoms: _524  and  _525
REMARK  216  A    between atoms: _524  and  _527
REMARK  217  A    between atoms: _527  and  _528
REMARK  218  A    between atoms: _532  and  _533
REMARK  219  A    between atoms: _538  and  _540
REMARK  220  A    between atoms: _540  and  _541
REMARK  221  A    between atoms: _540  and  _543
REMARK  222  A    between atoms: _546  and  _548
REMARK  223  A    between atoms: _548  and  _549
REMARK  224  A    between atoms: _548  and  _551
REMARK  225  A    between atoms: _551  and  _552
REMARK  226  A    between atoms: _557  and  _559
REMARK  227  A    between atoms: _559  and  _560
REMARK  228  A    between atoms: _559  and  _562
REMARK  229  A    between atoms: _562  and  _563
REMARK  230  A    between atoms: _566  and  _568
REMARK  231  A    between atoms: _568  and  _569
REMARK  232  A    between atoms: _568  and  _571
REMARK  233  A    between atoms: _571  and  _572
REMARK  234  A    between atoms: _575  and  _577
REMARK  235  A    between atoms: _577  and  _578
REMARK  236  A    between atoms: _580  and  _582
REMARK  237  A    between atoms: _582  and  _583
REMARK  238  A    between atoms: _582  and  _585
REMARK  239  A    between atoms: _585  and  _586
REMARK  240  A    between atoms: _586  and  _587
REMARK  241  A    between atoms: _587  and  _588
REMARK                            x       y       z     vdW  Elec       q    Type
REMARK                         _______ _______ _______ _____ _____    ______ ____
ROOT
ATOM      1  CA  VAL A   1     -24.190  17.018 -18.036  0.00  0.00    +0.133 C 
ENDROOT
BRANCH   1   2
ATOM      2  CB  VAL A   1     -23.192  16.468 -16.972  0.00  0.00    +0.023 C 
ATOM      3  CG2 VAL A   1     -23.936  15.591 -15.968  0.00  0.00    +0.002 C 
ATOM      4  CG1 VAL A   1     -22.484  17.624 -16.256  0.00  0.00    +0.002 C 
ENDBRANCH   1   2
BRANCH   1   5
ATOM      5  N   VAL A   1     -25.122  17.967 -17.450  0.00  0.00    -0.239 NA
ATOM      6  H   VAL A   1     -25.929  17.615 -16.896  0.00  0.00    +0.142 HD
ENDBRANCH   1   5
BRANCH   1   7
ATOM      7  C   VAL A   1     -24.945  15.842 -18.630  0.00  0.00    +0.224 C 
ATOM      8  O   VAL A   1     -26.150  15.685 -18.406  0.00  0.00    -0.287 OA
ENDBRANCH   1   7
TORSDOF 3
REMARK  Name = ../refined-set-2016/2qnq/2qnq_pocket.pdb
REMARK  241 active torsions:
REMARK  status: ('A' for Active; 'I' for Inactive)
REMARK    1  A    between atoms: _1  and  _3
REMARK    2  A    between atoms: _3  and  _4
REMARK    3  A    between atoms: _3  and  _6
REMARK    4  A    between atoms: _6  and  _7
REMARK    5  A    between atoms: _7  and  _8
REMARK    6  A    between atoms: _8  and  _9
REMARK    7  A    between atoms: _18  and  _20
REMARK    8  A    between atoms: _20  and  _21
REMARK    9  A    between atoms: _20  and  _23
REMARK   10  A    between atoms: _23  and  _24
REMARK   11  A    between atoms: _27  and  _29
REMARK   12  A    between atoms: _29  and  _30
REMARK   13  A    between atoms: _29  and  _32
REMARK   14  A    between atoms: _32  and  _33
REMARK   15  A    between atoms: _36  and  _38
REMARK   16  A    between atoms: _38  and  _39
REMARK   17  A    between atoms: _38  and  _41
REMARK   18  A    between atoms: _41  and  _42
REMARK   19  A    between atoms: _45  and  _47
REMARK   20  A    between atoms: _47  and  _48
REMARK   21  A    between atoms: _47  and  _50
REMARK   22  A    between atoms: _50  and  _51
REMARK   23  A    between atoms: _54  and  _56
REMARK   24  A    between atoms: _56  and  _57
REMARK   25  A    between atoms: _56  and  _59
REMARK   26  A    between atoms: _59  and  _60
REMARK   27  A    between atoms: _63  and  _65
REMARK   28  A    between atoms: _65  and  _66
REMARK   29  A    between atoms: _68  and  _70
REMARK   30  A    between atoms: _70  and  _71
REMARK   31  A    between atoms: _74  and  _76
REMARK   32  A    between atoms: _76  and  _77
REMARK   33  A    between atoms: _76  and  _79
REMARK   34  A    between atoms: _79  and  _80
REMARK   35  A    between atoms: _83  and  _85
REMARK   36  A    between atoms: _85  and  _86
REMARK   37  A    between atoms: _85  and  _88
REMARK   38  A    between atoms: _88  and  _89
REMARK   39  A    between atoms: _92  and  _94
REMARK   40  A    between atoms: _94  and  _95
REMARK   41  A    between atoms: _94  and  _97
REMARK   42  A    between atoms: _97  and  _98
REMARK   43  A    between atoms: _101  and  _103
REMARK   44  A    between atoms: _103  and  _104
REMARK   45  A    between atoms: _103  and  _106
REMARK   46  A    between atoms: _109  and  _111
REMARK   47  A    between atoms: _111  and  _112
REMARK   48  A    between atoms: _111  and  _114
REMARK   49  A    between atoms: _114  and  _115
REMARK   50  A    between atoms: _118  and  _120
REMARK   51  A    between atoms: _120  and  _121
REMARK   52  A    between atoms: _120  and  _123
REMARK   53  A    between atoms: _123  and  _124
REMARK   54  A    between atoms: _124  and  _125
REMARK   55  A    between atoms: _125  and  _126
REMARK   56  A    between atoms: _126  and  _127
REMARK   57  A    between atoms: _131  and  _133
REMARK   58  A    between atoms: _133  and  _134
REMARK   59  A    between atoms: _133  and  _136
REMARK   60  A    between atoms: _136  and  _137
REMARK   61  A    between atoms: _137  and  _138
REMARK   62  A    between atoms: _140  and  _142
REMARK   63  A    between atoms: _142  and  _143
REMARK   64  A    between atoms: _142  and  _145
REMARK   65  A    between atoms: _145  and  _146
REMARK   66  A    between atoms: _149  and  _151
REMARK   67  A    between atoms: _151  and  _152
REMARK   68  A    between atoms: _154  and  _156
REMARK   69  A    between atoms: _156  and  _157
REMARK   70  A    between atoms: _159  and  _161
REMARK   71  A    between atoms: _161  and  _162
REMARK   72  A    between atoms: _161  and  _164
REMARK   73  A    between atoms: _164  and  _165
REMARK   74  A    between atoms: _168  and  _170
REMARK   75  A    between atoms: _170  and  _171
REMARK   76  A    between atoms: _173  and  _175
REMARK   77  A    between atoms: _175  and  _176
REMARK   78  A    between atoms: _178  and  _180
REMARK   79  A    between atoms: _180  and  _181
REMARK   80  A    between atoms: _180  and  _183
REMARK   81  A    between atoms: _183  and  _184
REMARK   82  A    between atoms: _190  and  _192
REMARK   83  A    between atoms: _192  and  _193
REMARK   84  A    between atoms: _192  and  _195
REMARK   85  A    between atoms: _195  and  _196
REMARK   86  A    between atoms: _199  and  _201
REMARK   87  A    between atoms: _201  and  _202
REMARK   88  A    between atoms: _201  and  _204
REMARK   89  A    between atoms: _207  and  _209
REMARK   90  A    between atoms: _209  and  _210
REMARK   91  A    between atoms: _209  and  _212
REMARK   92  A    between atoms: _212  and  _213
REMARK   93  A    between atoms: _216  and  _218
REMARK   94  A    between atoms: _218  and  _219
REMARK   95  A    between atoms: _218  and  _221
REMARK   96  A    between atoms: _221  and  _222
REMARK   97  A    between atoms: _226  and  _227
REMARK   98  A    between atoms: _232  and  _234
REMARK   99  A    between atoms: _234  and  _235
REMARK  100  A    between atoms: _234  and  _237
REMARK  101  A    between atoms: _240  and  _242
REMARK  102  A    between atoms: _242  and  _243
REMARK  103  A    between atoms: _242  and  _245
REMARK  104  A    between atoms: _245  and  _246
REMARK  105  A    between atoms: _251  and  _253
REMARK  106  A    between atoms: _253  and  _254
REMARK  107  A    between atoms: _253  and  _256
REMARK  108  A    between atoms: _256  and  _257
REMARK  109  A    between atoms: _260  and  _262
REMARK  110  A    between atoms: _262  and  _263
REMARK  111  A    between atoms: _262  and  _265
REMARK  112  A    between atoms: _265  and  _266
REMARK  113  A    between atoms: _269  and  _271
REMARK  114  A    between atoms: _271  and  _272
REMARK  115  A    between atoms: _274  and  _276
REMARK  116  A    between atoms: _276  and  _277
REMARK  117  A    between atoms: _276  and  _279
REMARK  118  A    between atoms: _279  and  _280
REMARK  119  A    between atoms: _280  and  _281
REMARK  120  A    between atoms: _281  and  _282
REMARK  121  A    between atoms: _291  and  _293
REMARK  122  A    between atoms: _293  and  _294
REMARK  123  A    between atoms: _293  and  _296
REMARK  124  A    between atoms: _296  and  _297
REMARK  125  A    between atoms: _302  and  _304
REMARK  126  A    between atoms: _304  and  _305
REMARK  127  A    between atoms: _304  and  _307
REMARK  128  A    between atoms: _307  and  _308
REMARK  129  A    between atoms: _308  and  _309
REMARK  130  A    between atoms: _309  and  _310
REMARK  131  A    between atoms: _320  and  _321
REMARK  132  A    between atoms: _326  and  _328
REMARK  133  A    between atoms: _328  and  _329
REMARK  134  A    between atoms: _328  and  _331
REMARK  135  A    between atoms: _331  and  _332
REMARK  136  A    between atoms: _335  and  _337
REMARK  137  A    between atoms: _337  and  _338
REMARK  138  A    between atoms: _337  and  _340
REMARK  139  A    between atoms: _340  and  _341
REMARK  140  A    between atoms: _344  and  _346
REMARK  141  A    between atoms: _346  and  _347
REMARK  142  A    between atoms: _346  and  _349
REMARK  143  A    between atoms: _349  and  _350
REMARK  144  A    between atoms: _353  and  _355
REMARK  145  A    between atoms: _355  and  _356
REMARK  146  A    between atoms: _355  and  _358
REMARK  147  A    between atoms: _358  and  _359
REMARK  148  A    between atoms: _362  and  _364
REMARK  149  A    between atoms: _364  and  _365
REMARK  150  A    between atoms: _364  and  _367
REMARK  151  A    between atoms: _367  and  _368
REMARK  152  A    between atoms: _371  and  _373
REMARK  153  A    between atoms: _373  and  _374
REMARK  154  A    between atoms: _376  and  _378
REMARK  155  A    between atoms: _378  and  _379
REMARK  156  A    between atoms: _382  and  _384
REMARK  157  A    between atoms: _384  and  _385
REMARK  158  A    between atoms: _384  and  _387
REMARK  159  A    between atoms: _387  and  _388
REMARK  160  A    between atoms: _391  and  _393
REMARK  161  A    between atoms: _393  and  _394
REMARK  162  A    between atoms: _393  and  _396
REMARK  163  A    between atoms: _396  and  _397
REMARK  164  A    between atoms: _400  and  _402
REMARK  165  A    between atoms: _402  and  _403
REMARK  166  A    between atoms: _402  and  _405
REMARK  167  A    between atoms: _405  and  _406
REMARK  168  A    between atoms: _409  and  _411
REMARK  169  A    between atoms: _411  and  _412
REMARK  170  A    between atoms: _411  and  _414
REMARK  171  A    between atoms: _417  and  _419
REMARK  172  A    between atoms: _419  and  _420
REMARK  173  A    between atoms: _419  and  _422
REMARK  174  A    between atoms: _422  and  _423
REMARK  175  A    between atoms: _426  and  _428
REMARK  176  A    between atoms: _428  and  _429
REMARK  177  A    between atoms: _428  and  _431
REMARK  178  A    between atoms: _431  and  _432
REMARK  179  A    between atoms: _432  and  _433
REMARK  180  A    between atoms: _433  and  _434
REMARK  181  A    between atoms: _434  and  _435
REMARK  182  A    between atoms: _439  and  _441
REMARK  183  A    between atoms: _441  and  _442
REMARK  184  A    between atoms: _441  and  _444
REMARK  185  A    between atoms: _444  and  _445
REMARK  186  A    between atoms: _448  and  _450
REMARK  187  A    between atoms: _450  and  _451
REMARK  188  A    between atoms: _453  and  _455
REMARK  189  A    between atoms: _455  and  _456
REMARK  190  A    between atoms: _458  and  _460
REMARK  191  A    between atoms: _460  and  _461
REMARK  192  A    between atoms: _460  and  _463
REMARK  193  A    between atoms: _463  and  _464
REMARK  194  A    between atoms: _467  and  _469
REMARK  195  A    between atoms: _469  and  _470
REMARK  196  A    between atoms: _472  and  _474
REMARK  197  A    between atoms: _474  and  _475
REMARK  198  A    between atoms: _477  and  _479
REMARK  199  A    between atoms: _479  and  _480
REMARK  200  A    between atoms: _479  and  _482
REMARK  201  A    between atoms: _482  and  _483
REMARK  202  A    between atoms: _489  and  _491
REMARK  203  A    between atoms: _491  and  _492
REMARK  204  A    between atoms: _491  and  _494
REMARK  205  A    between atoms: _494  and  _495
REMARK  206  A    between atoms: _498  and  _500
REMARK  207  A    between atoms: _500  and  _501
REMARK  208  A    between atoms: _500  and  _503
REMARK  209  A    between atoms: _506  and  _508
REMARK  210  A    between atoms: _508  and  _509
REMARK  211  A    between atoms: _508  and  _511
REMARK  212  A    between atoms: _511  and  _512
REMARK  213  A    between atoms: _516  and  _517
REMARK  214  A    between atoms: _522  and  _524
REMARK  215  A    between atoms: _524  and  _525
REMARK  216  A    between atoms: _524  and  _527
REMARK  217  A    between atoms: _527  and  _528
REMARK  218  A    between atoms: _532  and  _533
REMARK  219  A    between atoms: _538  and  _540
REMARK  220  A    between atoms: _540  and  _541
REMARK  221  A    between atoms: _540  and  _543
REMARK  222  A    between atoms: _546  and  _548
REMARK  223  A    between atoms: _548  and  _549
REMARK  224  A    between atoms: _548  and  _551
REMARK  225  A    between atoms: _551  and  _552
REMARK  226  A    between atoms: _557  and  _559
REMARK  227  A    between atoms: _559  and  _560
REMARK  228  A    between atoms: _559  and  _562
REMARK  229  A    between atoms: _562  and  _563
REMARK  230  A    between atoms: _566  and  _568
REMARK  231  A    between atoms: _568  and  _569
REMARK  232  A    between atoms: _568  and  _571
REMARK  233  A    between atoms: _571  and  _572
REMARK  234  A    between atoms: _575  and  _577
REMARK  235  A    between atoms: _577  and  _578
REMARK  236  A    between atoms: _580  and  _582
REMARK  237  A    between atoms: _582  and  _583
REMARK  238  A    between atoms: _582  and  _585
REMARK  239  A    between atoms: _585  and  _586
REMARK  240  A    between atoms: _586  and  _587
REMARK  241  A    between atoms: _587  and  _588
REMARK                            x       y       z     vdW  Elec       q    Type
REMARK                         _______ _______ _______ _____ _____    ______ ____
ROOT
ATOM      1  CA  LEU A   1     -20.794  12.290 -16.656  0.00  0.00    +0.133 C 
ENDROOT
BRANCH   1   2
ATOM      2  N   LEU A   1     -19.987  11.135 -16.289  0.00  0.00    -0.239 NA
ATOM      3  H   LEU A   1     -19.251  11.241 -15.562  0.00  0.00    +0.142 HD
ENDBRANCH   1   2
BRANCH   1   4
ATOM      4  C   LEU A   1     -19.912  13.202 -17.507  0.00  0.00    +0.224 C 
ATOM      5  O   LEU A   1     -18.749  13.431 -17.176  0.00  0.00    -0.287 OA
ENDBRANCH   1   4
BRANCH   1   6
ATOM      6  CB  LEU A   1     -21.266  13.033 -15.401  0.00  0.00    +0.025 C 
BRANCH   6   7
ATOM      7  CG  LEU A   1     -21.866  12.198 -14.251  0.00  0.00    +0.002 C 
ATOM      8  CD2 LEU A   1     -22.238  13.122 -13.107  0.00  0.00    +0.000 C 
ATOM      9  CD1 LEU A   1     -23.087  11.420 -14.713  0.00  0.00    +0.000 C 
ENDBRANCH   6   7
ENDBRANCH   1   6
TORSDOF 4
REMARK  Name = ../refined-set-2016/2qnq/2qnq_pocket.pdb
REMARK  241 active torsions:
REMARK  status: ('A' for Active; 'I' for Inactive)
REMARK    1  A    between atoms: _1  and  _3
REMARK    2  A    between atoms: _3  and  _4
REMARK    3  A    between atoms: _3  and  _6
REMARK    4  A    between atoms: _6  and  _7
REMARK    5  A    between atoms: _7  and  _8
REMARK    6  A    between atoms: _8  and  _9
REMARK    7  A    between atoms: _18  and  _20
REMARK    8  A    between atoms: _20  and  _21
REMARK    9  A    between atoms: _20  and  _23
REMARK   10  A    between atoms: _23  and  _24
REMARK   11  A    between atoms: _27  and  _29
REMARK   12  A    between atoms: _29  and  _30
REMARK   13  A    between atoms: _29  and  _32
REMARK   14  A    between atoms: _32  and  _33
REMARK   15  A    between atoms: _36  and  _38
REMARK   16  A    between atoms: _38  and  _39
REMARK   17  A    between atoms: _38  and  _41
REMARK   18  A    between atoms: _41  and  _42
REMARK   19  A    between atoms: _45  and  _47
REMARK   20  A    between atoms: _47  and  _48
REMARK   21  A    between atoms: _47  and  _50
REMARK   22  A    between atoms: _50  and  _51
REMARK   23  A    between atoms: _54  and  _56
REMARK   24  A    between atoms: _56  and  _57
REMARK   25  A    between atoms: _56  and  _59
REMARK   26  A    between atoms: _59  and  _60
REMARK   27  A    between atoms: _63  and  _65
REMARK   28  A    between atoms: _65  and  _66
REMARK   29  A    between atoms: _68  and  _70
REMARK   30  A    between atoms: _70  and  _71
REMARK   31  A    between atoms: _74  and  _76
REMARK   32  A    between atoms: _76  and  _77
REMARK   33  A    between atoms: _76  and  _79
REMARK   34  A    between atoms: _79  and  _80
REMARK   35  A    between atoms: _83  and  _85
REMARK   36  A    between atoms: _85  and  _86
REMARK   37  A    between atoms: _85  and  _88
REMARK   38  A    between atoms: _88  and  _89
REMARK   39  A    between atoms: _92  and  _94
REMARK   40  A    between atoms: _94  and  _95
REMARK   41  A    between atoms: _94  and  _97
REMARK   42  A    between atoms: _97  and  _98
REMARK   43  A    between atoms: _101  and  _103
REMARK   44  A    between atoms: _103  and  _104
REMARK   45  A    between atoms: _103  and  _106
REMARK   46  A    between atoms: _109  and  _111
REMARK   47  A    between atoms: _111  and  _112
REMARK   48  A    between atoms: _111  and  _114
REMARK   49  A    between atoms: _114  and  _115
REMARK   50  A    between atoms: _118  and  _120
REMARK   51  A    between atoms: _120  and  _121
REMARK   52  A    between atoms: _120  and  _123
REMARK   53  A    between atoms: _123  and  _124
REMARK   54  A    between atoms: _124  and  _125
REMARK   55  A    between atoms: _125  and  _126
REMARK   56  A    between atoms: _126  and  _127
REMARK   57  A    between atoms: _131  and  _133
REMARK   58  A    between atoms: _133  and  _134
REMARK   59  A    between atoms: _133  and  _136
REMARK   60  A    between atoms: _136  and  _137
REMARK   61  A    between atoms: _137  and  _138
REMARK   62  A    between atoms: _140  and  _142
REMARK   63  A    between atoms: _142  and  _143
REMARK   64  A    between atoms: _142  and  _145
REMARK   65  A    between atoms: _145  and  _146
REMARK   66  A    between atoms: _149  and  _151
REMARK   67  A    between atoms: _151  and  _152
REMARK   68  A    between atoms: _154  and  _156
REMARK   69  A    between atoms: _156  and  _157
REMARK   70  A    between atoms: _159  and  _161
REMARK   71  A    between atoms: _161  and  _162
REMARK   72  A    between atoms: _161  and  _164
REMARK   73  A    between atoms: _164  and  _165
REMARK   74  A    between atoms: _168  and  _170
REMARK   75  A    between atoms: _170  and  _171
REMARK   76  A    between atoms: _173  and  _175
REMARK   77  A    between atoms: _175  and  _176
REMARK   78  A    between atoms: _178  and  _180
REMARK   79  A    between atoms: _180  and  _181
REMARK   80  A    between atoms: _180  and  _183
REMARK   81  A    between atoms: _183  and  _184
REMARK   82  A    between atoms: _190  and  _192
REMARK   83  A    between atoms: _192  and  _193
REMARK   84  A    between atoms: _192  and  _195
REMARK   85  A    between atoms: _195  and  _196
REMARK   86  A    between atoms: _199  and  _201
REMARK   87  A    between atoms: _201  and  _202
REMARK   88  A    between atoms: _201  and  _204
REMARK   89  A    between atoms: _207  and  _209
REMARK   90  A    between atoms: _209  and  _210
REMARK   91  A    between atoms: _209  and  _212
REMARK   92  A    between atoms: _212  and  _213
REMARK   93  A    between atoms: _216  and  _218
REMARK   94  A    between atoms: _218  and  _219
REMARK   95  A    between atoms: _218  and  _221
REMARK   96  A    between atoms: _221  and  _222
REMARK   97  A    between atoms: _226  and  _227
REMARK   98  A    between atoms: _232  and  _234
REMARK   99  A    between atoms: _234  and  _235
REMARK  100  A    between atoms: _234  and  _237
REMARK  101  A    between atoms: _240  and  _242
REMARK  102  A    between atoms: _242  and  _243
REMARK  103  A    between atoms: _242  and  _245
REMARK  104  A    between atoms: _245  and  _246
REMARK  105  A    between atoms: _251  and  _253
REMARK  106  A    between atoms: _253  and  _254
REMARK  107  A    between atoms: _253  and  _256
REMARK  108  A    between atoms: _256  and  _257
REMARK  109  A    between atoms: _260  and  _262
REMARK  110  A    between atoms: _262  and  _263
REMARK  111  A    between atoms: _262  and  _265
REMARK  112  A    between atoms: _265  and  _266
REMARK  113  A    between atoms: _269  and  _271
REMARK  114  A    between atoms: _271  and  _272
REMARK  115  A    between atoms: _274  and  _276
REMARK  116  A    between atoms: _276  and  _277
REMARK  117  A    between atoms: _276  and  _279
REMARK  118  A    between atoms: _279  and  _280
REMARK  119  A    between atoms: _280  and  _281
REMARK  120  A    between atoms: _281  and  _282
REMARK  121  A    between atoms: _291  and  _293
REMARK  122  A    between atoms: _293  and  _294
REMARK  123  A    between atoms: _293  and  _296
REMARK  124  A    between atoms: _296  and  _297
REMARK  125  A    between atoms: _302  and  _304
REMARK  126  A    between atoms: _304  and  _305
REMARK  127  A    between atoms: _304  and  _307
REMARK  128  A    between atoms: _307  and  _308
REMARK  129  A    between atoms: _308  and  _309
REMARK  130  A    between atoms: _309  and  _310
REMARK  131  A    between atoms: _320  and  _321
REMARK  132  A    between atoms: _326  and  _328
REMARK  133  A    between atoms: _328  and  _329
REMARK  134  A    between atoms: _328  and  _331
REMARK  135  A    between atoms: _331  and  _332
REMARK  136  A    between atoms: _335  and  _337
REMARK  137  A    between atoms: _337  and  _338
REMARK  138  A    between atoms: _337  and  _340
REMARK  139  A    between atoms: _340  and  _341
REMARK  140  A    between atoms: _344  and  _346
REMARK  141  A    between atoms: _346  and  _347
REMARK  142  A    between atoms: _346  and  _349
REMARK  143  A    between atoms: _349  and  _350
REMARK  144  A    between atoms: _353  and  _355
REMARK  145  A    between atoms: _355  and  _356
REMARK  146  A    between atoms: _355  and  _358
REMARK  147  A    between atoms: _358  and  _359
REMARK  148  A    between atoms: _362  and  _364
REMARK  149  A    between atoms: _364  and  _365
REMARK  150  A    between atoms: _364  and  _367
REMARK  151  A    between atoms: _367  and  _368
REMARK  152  A    between atoms: _371  and  _373
REMARK  153  A    between atoms: _373  and  _374
REMARK  154  A    between atoms: _376  and  _378
REMARK  155  A    between atoms: _378  and  _379
REMARK  156  A    between atoms: _382  and  _384
REMARK  157  A    between atoms: _384  and  _385
REMARK  158  A    between atoms: _384  and  _387
REMARK  159  A    between atoms: _387  and  _388
REMARK  160  A    between atoms: _391  and  _393
REMARK  161  A    between atoms: _393  and  _394
REMARK  162  A    between atoms: _393  and  _396
REMARK  163  A    between atoms: _396  and  _397
REMARK  164  A    between atoms: _400  and  _402
REMARK  165  A    between atoms: _402  and  _403
REMARK  166  A    between atoms: _402  and  _405
REMARK  167  A    between atoms: _405  and  _406
REMARK  168  A    between atoms: _409  and  _411
REMARK  169  A    between atoms: _411  and  _412
REMARK  170  A    between atoms: _411  and  _414
REMARK  171  A    between atoms: _417  and  _419
REMARK  172  A    between atoms: _419  and  _420
REMARK  173  A    between atoms: _419  and  _422
REMARK  174  A    between atoms: _422  and  _423
REMARK  175  A    between atoms: _426  and  _428
REMARK  176  A    between atoms: _428  and  _429
REMARK  177  A    between atoms: _428  and  _431
REMARK  178  A    between atoms: _431  and  _432
REMARK  179  A    between atoms: _432  and  _433
REMARK  180  A    between atoms: _433  and  _434
REMARK  181  A    between atoms: _434  and  _435
REMARK  182  A    between atoms: _439  and  _441
REMARK  183  A    between atoms: _441  and  _442
REMARK  184  A    between atoms: _441  and  _444
REMARK  185  A    between atoms: _444  and  _445
REMARK  186  A    between atoms: _448  and  _450
REMARK  187  A    between atoms: _450  and  _451
REMARK  188  A    between atoms: _453  and  _455
REMARK  189  A    between atoms: _455  and  _456
REMARK  190  A    between atoms: _458  and  _460
REMARK  191  A    between atoms: _460  and  _461
REMARK  192  A    between atoms: _460  and  _463
REMARK  193  A    between atoms: _463  and  _464
REMARK  194  A    between atoms: _467  and  _469
REMARK  195  A    between atoms: _469  and  _470
REMARK  196  A    between atoms: _472  and  _474
REMARK  197  A    between atoms: _474  and  _475
REMARK  198  A    between atoms: _477  and  _479
REMARK  199  A    between atoms: _479  and  _480
REMARK  200  A    between atoms: _479  and  _482
REMARK  201  A    between atoms: _482  and  _483
REMARK  202  A    between atoms: _489  and  _491
REMARK  203  A    between atoms: _491  and  _492
REMARK  204  A    between atoms: _491  and  _494
REMARK  205  A    between atoms: _494  and  _495
REMARK  206  A    between atoms: _498  and  _500
REMARK  207  A    between atoms: _500  and  _501
REMARK  208  A    between atoms: _500  and  _503
REMARK  209  A    between atoms: _506  and  _508
REMARK  210  A    between atoms: _508  and  _509
REMARK  211  A    between atoms: _508  and  _511
REMARK  212  A    between atoms: _511  and  _512
REMARK  213  A    between atoms: _516  and  _517
REMARK  214  A    between atoms: _522  and  _524
REMARK  215  A    between atoms: _524  and  _525
REMARK  216  A    between atoms: _524  and  _527
REMARK  217  A    between atoms: _527  and  _528
REMARK  218  A    between atoms: _532  and  _533
REMARK  219  A    between atoms: _538  and  _540
REMARK  220  A    between atoms: _540  and  _541
REMARK  221  A    between atoms: _540  and  _543
REMARK  222  A    between atoms: _546  and  _548
REMARK  223  A    between atoms: _548  and  _549
REMARK  224  A    between atoms: _548  and  _551
REMARK  225  A    between atoms: _551  and  _552
REMARK  226  A    between atoms: _557  and  _559
REMARK  227  A    between atoms: _559  and  _560
REMARK  228  A    between atoms: _559  and  _562
REMARK  229  A    between atoms: _562  and  _563
REMARK  230  A    between atoms: _566  and  _568
REMARK  231  A    between atoms: _568  and  _569
REMARK  232  A    between atoms: _568  and  _571
REMARK  233  A    between atoms: _571  and  _572
REMARK  234  A    between atoms: _575  and  _577
REMARK  235  A    between atoms: _577  and  _578
REMARK  236  A    between atoms: _580  and  _582
REMARK  237  A    between atoms: _582  and  _583
REMARK  238  A    between atoms: _582  and  _585
REMARK  239  A    between atoms: _585  and  _586
REMARK  240  A    between atoms: _586  and  _587
REMARK  241  A    between atoms: _587  and  _588
REMARK                            x       y       z     vdW  Elec       q    Type
REMARK                         _______ _______ _______ _____ _____    ______ ____
ROOT
ATOM      1  C   ILE A   5     -13.227  13.119 -11.858  0.00  0.00    +0.241 C 
ATOM      2  N   ILE A   6     -12.441  12.376 -11.083  0.00  0.00    -0.297 N 
ATOM      3  H   ILE A   6     -11.637  12.826 -10.600  0.00  0.00    +0.150 HD
ATOM      4  O   ILE A   5     -14.159  12.659 -12.522  0.00  0.00    -0.273 OA
ENDROOT
BRANCH   2   5
ATOM      5  CA  ILE A   6     -12.671  10.957 -10.891  0.00  0.00    +0.149 C 
BRANCH   5   6
ATOM      6  C   ILE A   6     -13.340  10.869  -9.509  0.00  0.00    +0.241 C 
ATOM      7  O   ILE A   6     -12.712  11.151  -8.492  0.00  0.00    -0.273 OA
ATOM      8  N   GLY A   7     -14.622  10.508  -9.481  0.00  0.00    -0.295 N 
ATOM      9  H   GLY A   7     -15.114  10.285 -10.370  0.00  0.00    +0.150 HD
BRANCH   8  10
ATOM     10  CA  GLY A   7     -15.342  10.422  -8.218  0.00  0.00    +0.176 C 
BRANCH  10  11
ATOM     11  C   GLY A   7     -15.310   9.077  -7.511  0.00  0.00    +0.243 C 
ATOM     12  N   ARG A   8     -15.998   9.014  -6.373  0.00  0.00    -0.297 N 
ATOM     13  H   ARG A   8     -16.515   9.858  -6.053  0.00  0.00    +0.150 HD
ATOM     14  O   GLY A   7     -14.688   8.111  -7.981  0.00  0.00    -0.273 OA
BRANCH  12  15
ATOM     15  CA  ARG A   8     -16.054   7.803  -5.558  0.00  0.00    +0.149 C 
BRANCH  15  16
ATOM     16  C   ARG A   8     -16.541   6.568  -6.317  0.00  0.00    +0.241 C 
ATOM     17  O   ARG A   8     -16.081   5.457  -6.047  0.00  0.00    -0.273 OA
ATOM     18  N   ASN A   9     -17.458   6.763  -7.265  0.00  0.00    -0.298 N 
ATOM     19  H   ASN A   9     -17.787   7.730  -7.459  0.00  0.00    +0.150 HD
BRANCH  18  20
ATOM     20  CA  ASN A   9     -18.013   5.655  -8.038  0.00  0.00    +0.146 C 
BRANCH  20  21
ATOM     21  C   ASN A   9     -16.951   4.842  -8.781  0.00  0.00    +0.227 C 
ATOM     22  O   ASN A   9     -17.165   3.662  -9.070  0.00  0.00    -0.286 OA
ENDBRANCH  20  21
BRANCH  20  23
ATOM     23  CB  ASN A   9     -19.092   6.160  -9.022  0.00  0.00    +0.112 C 
BRANCH  23  24
ATOM     24  CG  ASN A   9     -18.508   6.811 -10.269  0.00  0.00    +0.222 C 
ATOM     25  OD1 ASN A   9     -17.781   7.797 -10.190  0.00  0.00    -0.275 OA
ATOM     26  ND2 ASN A   9     -18.838   6.259 -11.432  0.00  0.00    -0.329 N 
ATOM     27 HD21 ASN A   9     -19.457   5.424 -11.454  0.00  0.00    +0.145 HD
ATOM     28 HD22 ASN A   9     -18.477   6.662 -12.320  0.00  0.00    +0.145 HD
ENDBRANCH  23  24
ENDBRANCH  20  23
ENDBRANCH  18  20
ENDBRANCH  15  16
BRANCH  15  29
ATOM     29  CB  ARG A   8     -16.945   8.032  -4.317  0.00  0.00    +0.033 C 
BRANCH  29  30
ATOM     30  CG  ARG A   8     -16.355   9.005  -3.275  0.00  0.00    +0.045 C 
BRANCH  30  31
ATOM     31  CD  ARG A   8     -17.169   9.058  -1.979  0.00  0.00    +0.174 C 
BRANCH  31  32
ATOM     32  NE  ARG A   8     -18.546   9.479  -2.217  0.00  0.00    -0.265 N 
ATOM     33  CZ  ARG A   8     -19.595   8.659  -2.261  0.00  0.00    +0.342 C 
ATOM     34  NH2 ARG A   8     -19.440   7.350  -2.070  0.00  0.00    -0.292 N 
ATOM     35 HH21 ARG A   8     -18.494   6.960  -1.885  0.00  0.00    +0.255 HD
ATOM     36 HH22 ARG A   8     -20.265   6.718  -2.106  0.00  0.00    +0.255 HD
ATOM     37  NH1 ARG A   8     -20.800   9.143  -2.529  0.00  0.00    -0.292 N 
ATOM     38 HH11 ARG A   8     -21.621   8.505  -2.564  0.00  0.00    +0.255 HD
ATOM     39 HH12 ARG A   8     -20.925  10.161  -2.704  0.00  0.00    +0.255 HD
ATOM     40  HE  ARG A   8     -18.721  10.494  -2.363  0.00  0.00    +0.259 HD
ENDBRANCH  31  32
ENDBRANCH  30  31
ENDBRANCH  29  30
ENDBRANCH  15  29
ENDBRANCH  12  15
ENDBRANCH  10  11
ENDBRANCH   8  10
ENDBRANCH   5   6
BRANCH   5  41
ATOM     41  CB  ILE A   6     -11.354  10.166 -10.881  0.00  0.00    +0.027 C 
ATOM     42  CG2 ILE A   6     -11.642   8.676 -10.705  0.00  0.00    +0.002 C 
BRANCH  41  43
ATOM     43  CG1 ILE A   6     -10.605  10.381 -12.200  0.00  0.00    +0.002 C 
ATOM     44  CD1 ILE A   6     -11.383   9.930 -13.441  0.00  0.00    +0.000 C 
ENDBRANCH  41  43
ENDBRANCH   5  41
ENDBRANCH   2   5
BRANCH   1  45
ATOM     45  CA  ILE A   5     -12.906  14.604 -11.893  0.00  0.00    +0.149 C 
BRANCH  45  48
ATOM     46  C   ASN A   4     -11.677  15.822 -13.584  0.00  0.00    +0.241 C 
ATOM     47  O   ASN A   4     -10.736  16.024 -12.812  0.00  0.00    -0.273 OA
ATOM     48  N   ILE A   5     -12.754  15.137 -13.236  0.00  0.00    -0.297 N 
ATOM     49  H   ILE A   5     -13.506  14.977 -13.937  0.00  0.00    +0.150 HD
BRANCH  46  50
ATOM     50  CA  ASN A   4     -11.659  16.362 -15.011  0.00  0.00    +0.158 C 
BRANCH  50  53
ATOM     51  C   VAL A   3     -11.989  18.661 -14.388  0.00  0.00    +0.241 C 
ATOM     52  O   VAL A   3     -13.101  18.394 -13.927  0.00  0.00    -0.273 OA
ATOM     53  N   ASN A   4     -11.215  17.745 -14.959  0.00  0.00    -0.297 N 
ATOM     54  H   ASN A   4     -10.297  18.016 -15.366  0.00  0.00    +0.150 HD
BRANCH  51  55
ATOM     55  CA  VAL A   3     -11.451  20.087 -14.332  0.00  0.00    +0.149 C 
BRANCH  55  57
ATOM     56  C   PRO A   2     -12.373  22.249 -14.975  0.00  0.00    +0.241 C 
ATOM     57  N   VAL A   3     -12.556  21.026 -14.492  0.00  0.00    -0.297 N 
ATOM     58  H   VAL A   3     -13.515  20.729 -14.220  0.00  0.00    +0.150 HD
ATOM     59  O   PRO A   2     -11.272  22.664 -15.317  0.00  0.00    -0.273 OA
BRANCH  56  65
ATOM     60  C   THR A   1     -15.384  21.731 -16.010  0.00  0.00    +0.244 C 
ATOM     61  N   PRO A   2     -14.897  22.432 -14.970  0.00  0.00    -0.272 N 
ATOM     62  CD  PRO A   2     -15.566  22.777 -13.702  0.00  0.00    +0.094 C 
ATOM     63  CG  PRO A   2     -14.460  23.478 -12.928  0.00  0.00    +0.024 C 
ATOM     64  CB  PRO A   2     -13.697  24.189 -13.986  0.00  0.00    +0.031 C 
ATOM     65  CA  PRO A   2     -13.615  23.142 -15.096  0.00  0.00    +0.152 C 
ATOM     66  O   THR A   1     -14.787  21.670 -17.088  0.00  0.00    -0.273 OA
BRANCH  60  67
ATOM     67  CA  THR A   1     -16.724  21.012 -15.821  0.00  0.00    +0.172 C 
BRANCH  67  68
ATOM     68  N   THR A   1     -17.410  20.960 -17.107  0.00  0.00    -0.236 NA
ATOM     69  H   THR A   1     -17.394  20.081 -17.662  0.00  0.00    +0.142 HD
ENDBRANCH  67  68
BRANCH  67  70
ATOM     70  CB  THR A   1     -16.493  19.579 -15.264  0.00  0.00    +0.135 C 
ATOM     71  CG2 THR A   1     -15.775  18.710 -16.290  0.00  0.00    +0.034 C 
BRANCH  70  72
ATOM     72  OG1 THR A   1     -15.710  19.645 -14.072  0.00  0.00    -0.383 OA
ATOM     73  HG1 THR A   1     -14.836  20.063 -14.275  0.00  0.00    +0.210 HD
ENDBRANCH  70  72
ENDBRANCH  67  70
ENDBRANCH  60  67
ENDBRANCH  56  65
ENDBRANCH  55  57
BRANCH  55  74
ATOM     74  CB  VAL A   3     -10.732  20.290 -12.964  0.00  0.00    +0.027 C 
ATOM     75  CG2 VAL A   3     -11.730  20.134 -11.827  0.00  0.00    +0.002 C 
ATOM     76  CG1 VAL A   3      -9.600  19.279 -12.801  0.00  0.00    +0.002 C 
ENDBRANCH  55  74
ENDBRANCH  51  55
ENDBRANCH  50  53
BRANCH  50  77
ATOM     77  CB  ASN A   4     -10.737  15.527 -15.898  0.00  0.00    +0.114 C 
BRANCH  77  78
ATOM     78  CG  ASN A   4     -10.878  15.877 -17.374  0.00  0.00    +0.222 C 
ATOM     79  OD1 ASN A   4     -11.991  15.983 -17.892  0.00  0.00    -0.275 OA
ATOM     80  ND2 ASN A   4      -9.749  16.049 -18.058  0.00  0.00    -0.329 N 
ATOM     81 HD21 ASN A   4      -8.831  15.950 -17.580  0.00  0.00    +0.145 HD
ATOM     82 HD22 ASN A   4      -9.785  16.283 -19.071  0.00  0.00    +0.145 HD
ENDBRANCH  77  78
ENDBRANCH  50  77
ENDBRANCH  46  50
ENDBRANCH  45  48
BRANCH  45  83
ATOM     83  CB  ILE A   5     -14.042  15.357 -11.144  0.00  0.00    +0.027 C 
ATOM     84  CG2 ILE A   5     -14.345  14.686  -9.804  0.00  0.00    +0.002 C 
BRANCH  83  85
ATOM     85  CG1 ILE A   5     -13.653  16.823 -10.955  0.00  0.00    +0.002 C 
ATOM     86  CD1 ILE A   5     -14.725  17.768 -11.436  0.00  0.00    +0.000 C 
ENDBRANCH  83  85
ENDBRANCH  45  83
ENDBRANCH   1  45
TORSDOF 32
REMARK  Name = ../refined-set-2016/2qnq/2qnq_pocket.pdb
REMARK  241 active torsions:
REMARK  status: ('A' for Active; 'I' for Inactive)
REMARK    1  A    between atoms: _1  and  _3
REMARK    2  A    between atoms: _3  and  _4
REMARK    3  A    between atoms: _3  and  _6
REMARK    4  A    between atoms: _6  and  _7
REMARK    5  A    between atoms: _7  and  _8
REMARK    6  A    between atoms: _8  and  _9
REMARK    7  A    between atoms: _18  and  _20
REMARK    8  A    between atoms: _20  and  _21
REMARK    9  A    between atoms: _20  and  _23
REMARK   10  A    between atoms: _23  and  _24
REMARK   11  A    between atoms: _27  and  _29
REMARK   12  A    between atoms: _29  and  _30
REMARK   13  A    between atoms: _29  and  _32
REMARK   14  A    between atoms: _32  and  _33
REMARK   15  A    between atoms: _36  and  _38
REMARK   16  A    between atoms: _38  and  _39
REMARK   17  A    between atoms: _38  and  _41
REMARK   18  A    between atoms: _41  and  _42
REMARK   19  A    between atoms: _45  and  _47
REMARK   20  A    between atoms: _47  and  _48
REMARK   21  A    between atoms: _47  and  _50
REMARK   22  A    between atoms: _50  and  _51
REMARK   23  A    between atoms: _54  and  _56
REMARK   24  A    between atoms: _56  and  _57
REMARK   25  A    between atoms: _56  and  _59
REMARK   26  A    between atoms: _59  and  _60
REMARK   27  A    between atoms: _63  and  _65
REMARK   28  A    between atoms: _65  and  _66
REMARK   29  A    between atoms: _68  and  _70
REMARK   30  A    between atoms: _70  and  _71
REMARK   31  A    between atoms: _74  and  _76
REMARK   32  A    between atoms: _76  and  _77
REMARK   33  A    between atoms: _76  and  _79
REMARK   34  A    between atoms: _79  and  _80
REMARK   35  A    between atoms: _83  and  _85
REMARK   36  A    between atoms: _85  and  _86
REMARK   37  A    between atoms: _85  and  _88
REMARK   38  A    between atoms: _88  and  _89
REMARK   39  A    between atoms: _92  and  _94
REMARK   40  A    between atoms: _94  and  _95
REMARK   41  A    between atoms: _94  and  _97
REMARK   42  A    between atoms: _97  and  _98
REMARK   43  A    between atoms: _101  and  _103
REMARK   44  A    between atoms: _103  and  _104
REMARK   45  A    between atoms: _103  and  _106
REMARK   46  A    between atoms: _109  and  _111
REMARK   47  A    between atoms: _111  and  _112
REMARK   48  A    between atoms: _111  and  _114
REMARK   49  A    between atoms: _114  and  _115
REMARK   50  A    between atoms: _118  and  _120
REMARK   51  A    between atoms: _120  and  _121
REMARK   52  A    between atoms: _120  and  _123
REMARK   53  A    between atoms: _123  and  _124
REMARK   54  A    between atoms: _124  and  _125
REMARK   55  A    between atoms: _125  and  _126
REMARK   56  A    between atoms: _126  and  _127
REMARK   57  A    between atoms: _131  and  _133
REMARK   58  A    between atoms: _133  and  _134
REMARK   59  A    between atoms: _133  and  _136
REMARK   60  A    between atoms: _136  and  _137
REMARK   61  A    between atoms: _137  and  _138
REMARK   62  A    between atoms: _140  and  _142
REMARK   63  A    between atoms: _142  and  _143
REMARK   64  A    between atoms: _142  and  _145
REMARK   65  A    between atoms: _145  and  _146
REMARK   66  A    between atoms: _149  and  _151
REMARK   67  A    between atoms: _151  and  _152
REMARK   68  A    between atoms: _154  and  _156
REMARK   69  A    between atoms: _156  and  _157
REMARK   70  A    between atoms: _159  and  _161
REMARK   71  A    between atoms: _161  and  _162
REMARK   72  A    between atoms: _161  and  _164
REMARK   73  A    between atoms: _164  and  _165
REMARK   74  A    between atoms: _168  and  _170
REMARK   75  A    between atoms: _170  and  _171
REMARK   76  A    between atoms: _173  and  _175
REMARK   77  A    between atoms: _175  and  _176
REMARK   78  A    between atoms: _178  and  _180
REMARK   79  A    between atoms: _180  and  _181
REMARK   80  A    between atoms: _180  and  _183
REMARK   81  A    between atoms: _183  and  _184
REMARK   82  A    between atoms: _190  and  _192
REMARK   83  A    between atoms: _192  and  _193
REMARK   84  A    between atoms: _192  and  _195
REMARK   85  A    between atoms: _195  and  _196
REMARK   86  A    between atoms: _199  and  _201
REMARK   87  A    between atoms: _201  and  _202
REMARK   88  A    between atoms: _201  and  _204
REMARK   89  A    between atoms: _207  and  _209
REMARK   90  A    between atoms: _209  and  _210
REMARK   91  A    between atoms: _209  and  _212
REMARK   92  A    between atoms: _212  and  _213
REMARK   93  A    between atoms: _216  and  _218
REMARK   94  A    between atoms: _218  and  _219
REMARK   95  A    between atoms: _218  and  _221
REMARK   96  A    between atoms: _221  and  _222
REMARK   97  A    between atoms: _226  and  _227
REMARK   98  A    between atoms: _232  and  _234
REMARK   99  A    between atoms: _234  and  _235
REMARK  100  A    between atoms: _234  and  _237
REMARK  101  A    between atoms: _240  and  _242
REMARK  102  A    between atoms: _242  and  _243
REMARK  103  A    between atoms: _242  and  _245
REMARK  104  A    between atoms: _245  and  _246
REMARK  105  A    between atoms: _251  and  _253
REMARK  106  A    between atoms: _253  and  _254
REMARK  107  A    between atoms: _253  and  _256
REMARK  108  A    between atoms: _256  and  _257
REMARK  109  A    between atoms: _260  and  _262
REMARK  110  A    between atoms: _262  and  _263
REMARK  111  A    between atoms: _262  and  _265
REMARK  112  A    between atoms: _265  and  _266
REMARK  113  A    between atoms: _269  and  _271
REMARK  114  A    between atoms: _271  and  _272
REMARK  115  A    between atoms: _274  and  _276
REMARK  116  A    between atoms: _276  and  _277
REMARK  117  A    between atoms: _276  and  _279
REMARK  118  A    between atoms: _279  and  _280
REMARK  119  A    between atoms: _280  and  _281
REMARK  120  A    between atoms: _281  and  _282
REMARK  121  A    between atoms: _291  and  _293
REMARK  122  A    between atoms: _293  and  _294
REMARK  123  A    between atoms: _293  and  _296
REMARK  124  A    between atoms: _296  and  _297
REMARK  125  A    between atoms: _302  and  _304
REMARK  126  A    between atoms: _304  and  _305
REMARK  127  A    between atoms: _304  and  _307
REMARK  128  A    between atoms: _307  and  _308
REMARK  129  A    between atoms: _308  and  _309
REMARK  130  A    between atoms: _309  and  _310
REMARK  131  A    between atoms: _320  and  _321
REMARK  132  A    between atoms: _326  and  _328
REMARK  133  A    between atoms: _328  and  _329
REMARK  134  A    between atoms: _328  and  _331
REMARK  135  A    between atoms: _331  and  _332
REMARK  136  A    between atoms: _335  and  _337
REMARK  137  A    between atoms: _337  and  _338
REMARK  138  A    between atoms: _337  and  _340
REMARK  139  A    between atoms: _340  and  _341
REMARK  140  A    between atoms: _344  and  _346
REMARK  141  A    between atoms: _346  and  _347
REMARK  142  A    between atoms: _346  and  _349
REMARK  143  A    between atoms: _349  and  _350
REMARK  144  A    between atoms: _353  and  _355
REMARK  145  A    between atoms: _355  and  _356
REMARK  146  A    between atoms: _355  and  _358
REMARK  147  A    between atoms: _358  and  _359
REMARK  148  A    between atoms: _362  and  _364
REMARK  149  A    between atoms: _364  and  _365
REMARK  150  A    between atoms: _364  and  _367
REMARK  151  A    between atoms: _367  and  _368
REMARK  152  A    between atoms: _371  and  _373
REMARK  153  A    between atoms: _373  and  _374
REMARK  154  A    between atoms: _376  and  _378
REMARK  155  A    between atoms: _378  and  _379
REMARK  156  A    between atoms: _382  and  _384
REMARK  157  A    between atoms: _384  and  _385
REMARK  158  A    between atoms: _384  and  _387
REMARK  159  A    between atoms: _387  and  _388
REMARK  160  A    between atoms: _391  and  _393
REMARK  161  A    between atoms: _393  and  _394
REMARK  162  A    between atoms: _393  and  _396
REMARK  163  A    between atoms: _396  and  _397
REMARK  164  A    between atoms: _400  and  _402
REMARK  165  A    between atoms: _402  and  _403
REMARK  166  A    between atoms: _402  and  _405
REMARK  167  A    between atoms: _405  and  _406
REMARK  168  A    between atoms: _409  and  _411
REMARK  169  A    between atoms: _411  and  _412
REMARK  170  A    between atoms: _411  and  _414
REMARK  171  A    between atoms: _417  and  _419
REMARK  172  A    between atoms: _419  and  _420
REMARK  173  A    between atoms: _419  and  _422
REMARK  174  A    between atoms: _422  and  _423
REMARK  175  A    between atoms: _426  and  _428
REMARK  176  A    between atoms: _428  and  _429
REMARK  177  A    between atoms: _428  and  _431
REMARK  178  A    between atoms: _431  and  _432
REMARK  179  A    between atoms: _432  and  _433
REMARK  180  A    between atoms: _433  and  _434
REMARK  181  A    between atoms: _434  and  _435
REMARK  182  A    between atoms: _439  and  _441
REMARK  183  A    between atoms: _441  and  _442
REMARK  184  A    between atoms: _441  and  _444
REMARK  185  A    between atoms: _444  and  _445
REMARK  186  A    between atoms: _448  and  _450
REMARK  187  A    between atoms: _450  and  _451
REMARK  188  A    between atoms: _453  and  _455
REMARK  189  A    between atoms: _455  and  _456
REMARK  190  A    between atoms: _458  and  _460
REMARK  191  A    between atoms: _460  and  _461
REMARK  192  A    between atoms: _460  and  _463
REMARK  193  A    between atoms: _463  and  _464
REMARK  194  A    between atoms: _467  and  _469
REMARK  195  A    between atoms: _469  and  _470
REMARK  196  A    between atoms: _472  and  _474
REMARK  197  A    between atoms: _474  and  _475
REMARK  198  A    between atoms: _477  and  _479
REMARK  199  A    between atoms: _479  and  _480
REMARK  200  A    between atoms: _479  and  _482
REMARK  201  A    between atoms: _482  and  _483
REMARK  202  A    between atoms: _489  and  _491
REMARK  203  A    between atoms: _491  and  _492
REMARK  204  A    between atoms: _491  and  _494
REMARK  205  A    between atoms: _494  and  _495
REMARK  206  A    between atoms: _498  and  _500
REMARK  207  A    between atoms: _500  and  _501
REMARK  208  A    between atoms: _500  and  _503
REMARK  209  A    between atoms: _506  and  _508
REMARK  210  A    between atoms: _508  and  _509
REMARK  211  A    between atoms: _508  and  _511
REMARK  212  A    between atoms: _511  and  _512
REMARK  213  A    between atoms: _516  and  _517
REMARK  214  A    between atoms: _522  and  _524
REMARK  215  A    between atoms: _524  and  _525
REMARK  216  A    between atoms: _524  and  _527
REMARK  217  A    between atoms: _527  and  _528
REMARK  218  A    between atoms: _532  and  _533
REMARK  219  A    between atoms: _538  and  _540
REMARK  220  A    between atoms: _540  and  _541
REMARK  221  A    between atoms: _540  and  _543
REMARK  222  A    between atoms: _546  and  _548
REMARK  223  A    between atoms: _548  and  _549
REMARK  224  A    between atoms: _548  and  _551
REMARK  225  A    between atoms: _551  and  _552
REMARK  226  A    between atoms: _557  and  _559
REMARK  227  A    between atoms: _559  and  _560
REMARK  228  A    between atoms: _559  and  _562
REMARK  229  A    between atoms: _562  and  _563
REMARK  230  A    between atoms: _566  and  _568
REMARK  231  A    between atoms: _568  and  _569
REMARK  232  A    between atoms: _568  and  _571
REMARK  233  A    between atoms: _571  and  _572
REMARK  234  A    between atoms: _575  and  _577
REMARK  235  A    between atoms: _577  and  _578
REMARK  236  A    between atoms: _580  and  _582
REMARK  237  A    between atoms: _582  and  _583
REMARK  238  A    between atoms: _582  and  _585
REMARK  239  A    between atoms: _585  and  _586
REMARK  240  A    between atoms: _586  and  _587
REMARK  241  A    between atoms: _587  and  _588
REMARK                            x       y       z     vdW  Elec       q    Type
REMARK                         _______ _______ _______ _____ _____    ______ ____
ROOT
ATOM      1  C   ARG A   1     -18.467   9.641   2.679  0.00  0.00    +0.241 C 
ATOM      2  O   ARG A   1     -18.878   9.162   3.734  0.00  0.00    -0.273 OA
ATOM      3  N   PRO A   2     -17.210  10.101   2.549  0.00  0.00    -0.272 N 
ATOM      4  CA  PRO A   2     -16.289  10.065   3.692  0.00  0.00    +0.152 C 
ATOM      5  CB  PRO A   2     -14.911  10.205   3.033  0.00  0.00    +0.031 C 
ATOM      6  CG  PRO A   2     -15.201  11.031   1.803  0.00  0.00    +0.024 C 
ATOM      7  CD  PRO A   2     -16.500  10.437   1.299  0.00  0.00    +0.094 C 
ENDROOT
BRANCH   4   8
ATOM      8  C   PRO A   2     -16.587  11.184   4.694  0.00  0.00    +0.241 C 
ATOM      9  N   LEU A   3     -17.729  11.075   5.369  0.00  0.00    -0.298 N 
ATOM     10  H   LEU A   3     -18.342  10.256   5.179  0.00  0.00    +0.150 HD
ATOM     11  O   PRO A   2     -15.805  12.122   4.840  0.00  0.00    -0.273 OA
BRANCH   9  12
ATOM     12  CA  LEU A   3     -18.162  12.057   6.368  0.00  0.00    +0.137 C 
BRANCH  12  13
ATOM     13  C   LEU A   3     -17.565  11.750   7.736  0.00  0.00    +0.227 C 
ATOM     14  O   LEU A   3     -17.660  10.621   8.217  0.00  0.00    -0.286 OA
ENDBRANCH  12  13
BRANCH  12  15
ATOM     15  CB  LEU A   3     -19.689  12.043   6.500  0.00  0.00    +0.028 C 
BRANCH  15  16
ATOM     16  CG  LEU A   3     -20.536  12.575   5.348  0.00  0.00    +0.002 C 
ATOM     17  CD2 LEU A   3     -21.981  12.152   5.541  0.00  0.00    +0.000 C 
ATOM     18  CD1 LEU A   3     -20.417  14.089   5.288  0.00  0.00    +0.000 C 
ENDBRANCH  15  16
ENDBRANCH  12  15
ENDBRANCH   9  12
ENDBRANCH   4   8
BRANCH   1  19
ATOM     19  CA  ARG A   1     -19.368   9.717   1.450  0.00  0.00    +0.145 C 
BRANCH  19  20
ATOM     20  N   ARG A   1     -20.096   8.468   1.231  0.00  0.00    -0.238 NA
ATOM     21  H   ARG A   1     -21.134   8.476   1.162  0.00  0.00    +0.142 HD
ENDBRANCH  19  20
BRANCH  19  22
ATOM     22  CB  ARG A   1     -20.331  10.897   1.612  0.00  0.00    +0.030 C 
BRANCH  22  23
ATOM     23  CG  ARG A   1     -20.973  11.358   0.326  0.00  0.00    +0.045 C 
BRANCH  23  24
ATOM     24  CD  ARG A   1     -21.626  12.727   0.489  0.00  0.00    +0.174 C 
BRANCH  24  25
ATOM     25  NE  ARG A   1     -22.332  13.138  -0.724  0.00  0.00    -0.265 N 
ATOM     26  CZ  ARG A   1     -22.912  14.325  -0.890  0.00  0.00    +0.342 C 
ATOM     27  NH2 ARG A   1     -22.873  15.228   0.083  0.00  0.00    -0.292 N 
ATOM     28 HH21 ARG A   1     -22.389  15.009   0.977  0.00  0.00    +0.255 HD
ATOM     29 HH22 ARG A   1     -23.327  16.154  -0.049  0.00  0.00    +0.255 HD
ATOM     30  NH1 ARG A   1     -23.527  14.614  -2.032  0.00  0.00    -0.292 N 
ATOM     31 HH11 ARG A   1     -23.979  15.542  -2.159  0.00  0.00    +0.255 HD
ATOM     32 HH12 ARG A   1     -23.556  13.912  -2.799  0.00  0.00    +0.255 HD
ATOM     33  HE  ARG A   1     -22.385  12.458  -1.509  0.00  0.00    +0.259 HD
ENDBRANCH  24  25
ENDBRANCH  23  24
ENDBRANCH  22  23
ENDBRANCH  19  22
ENDBRANCH   1  19
TORSDOF 11
REMARK  Name = ../refined-set-2016/2qnq/2qnq_pocket.pdb
REMARK  241 active torsions:
REMARK  status: ('A' for Active; 'I' for Inactive)
REMARK    1  A    between atoms: _1  and  _3
REMARK    2  A    between atoms: _3  and  _4
REMARK    3  A    between atoms: _3  and  _6
REMARK    4  A    between atoms: _6  and  _7
REMARK    5  A    between atoms: _7  and  _8
REMARK    6  A    between atoms: _8  and  _9
REMARK    7  A    between atoms: _18  and  _20
REMARK    8  A    between atoms: _20  and  _21
REMARK    9  A    between atoms: _20  and  _23
REMARK   10  A    between atoms: _23  and  _24
REMARK   11  A    between atoms: _27  and  _29
REMARK   12  A    between atoms: _29  and  _30
REMARK   13  A    between atoms: _29  and  _32
REMARK   14  A    between atoms: _32  and  _33
REMARK   15  A    between atoms: _36  and  _38
REMARK   16  A    between atoms: _38  and  _39
REMARK   17  A    between atoms: _38  and  _41
REMARK   18  A    between atoms: _41  and  _42
REMARK   19  A    between atoms: _45  and  _47
REMARK   20  A    between atoms: _47  and  _48
REMARK   21  A    between atoms: _47  and  _50
REMARK   22  A    between atoms: _50  and  _51
REMARK   23  A    between atoms: _54  and  _56
REMARK   24  A    between atoms: _56  and  _57
REMARK   25  A    between atoms: _56  and  _59
REMARK   26  A    between atoms: _59  and  _60
REMARK   27  A    between atoms: _63  and  _65
REMARK   28  A    between atoms: _65  and  _66
REMARK   29  A    between atoms: _68  and  _70
REMARK   30  A    between atoms: _70  and  _71
REMARK   31  A    between atoms: _74  and  _76
REMARK   32  A    between atoms: _76  and  _77
REMARK   33  A    between atoms: _76  and  _79
REMARK   34  A    between atoms: _79  and  _80
REMARK   35  A    between atoms: _83  and  _85
REMARK   36  A    between atoms: _85  and  _86
REMARK   37  A    between atoms: _85  and  _88
REMARK   38  A    between atoms: _88  and  _89
REMARK   39  A    between atoms: _92  and  _94
REMARK   40  A    between atoms: _94  and  _95
REMARK   41  A    between atoms: _94  and  _97
REMARK   42  A    between atoms: _97  and  _98
REMARK   43  A    between atoms: _101  and  _103
REMARK   44  A    between atoms: _103  and  _104
REMARK   45  A    between atoms: _103  and  _106
REMARK   46  A    between atoms: _109  and  _111
REMARK   47  A    between atoms: _111  and  _112
REMARK   48  A    between atoms: _111  and  _114
REMARK   49  A    between atoms: _114  and  _115
REMARK   50  A    between atoms: _118  and  _120
REMARK   51  A    between atoms: _120  and  _121
REMARK   52  A    between atoms: _120  and  _123
REMARK   53  A    between atoms: _123  and  _124
REMARK   54  A    between atoms: _124  and  _125
REMARK   55  A    between atoms: _125  and  _126
REMARK   56  A    between atoms: _126  and  _127
REMARK   57  A    between atoms: _131  and  _133
REMARK   58  A    between atoms: _133  and  _134
REMARK   59  A    between atoms: _133  and  _136
REMARK   60  A    between atoms: _136  and  _137
REMARK   61  A    between atoms: _137  and  _138
REMARK   62  A    between atoms: _140  and  _142
REMARK   63  A    between atoms: _142  and  _143
REMARK   64  A    between atoms: _142  and  _145
REMARK   65  A    between atoms: _145  and  _146
REMARK   66  A    between atoms: _149  and  _151
REMARK   67  A    between atoms: _151  and  _152
REMARK   68  A    between atoms: _154  and  _156
REMARK   69  A    between atoms: _156  and  _157
REMARK   70  A    between atoms: _159  and  _161
REMARK   71  A    between atoms: _161  and  _162
REMARK   72  A    between atoms: _161  and  _164
REMARK   73  A    between atoms: _164  and  _165
REMARK   74  A    between atoms: _168  and  _170
REMARK   75  A    between atoms: _170  and  _171
REMARK   76  A    between atoms: _173  and  _175
REMARK   77  A    between atoms: _175  and  _176
REMARK   78  A    between atoms: _178  and  _180
REMARK   79  A    between atoms: _180  and  _181
REMARK   80  A    between atoms: _180  and  _183
REMARK   81  A    between atoms: _183  and  _184
REMARK   82  A    between atoms: _190  and  _192
REMARK   83  A    between atoms: _192  and  _193
REMARK   84  A    between atoms: _192  and  _195
REMARK   85  A    between atoms: _195  and  _196
REMARK   86  A    between atoms: _199  and  _201
REMARK   87  A    between atoms: _201  and  _202
REMARK   88  A    between atoms: _201  and  _204
REMARK   89  A    between atoms: _207  and  _209
REMARK   90  A    between atoms: _209  and  _210
REMARK   91  A    between atoms: _209  and  _212
REMARK   92  A    between atoms: _212  and  _213
REMARK   93  A    between atoms: _216  and  _218
REMARK   94  A    between atoms: _218  and  _219
REMARK   95  A    between atoms: _218  and  _221
REMARK   96  A    between atoms: _221  and  _222
REMARK   97  A    between atoms: _226  and  _227
REMARK   98  A    between atoms: _232  and  _234
REMARK   99  A    between atoms: _234  and  _235
REMARK  100  A    between atoms: _234  and  _237
REMARK  101  A    between atoms: _240  and  _242
REMARK  102  A    between atoms: _242  and  _243
REMARK  103  A    between atoms: _242  and  _245
REMARK  104  A    between atoms: _245  and  _246
REMARK  105  A    between atoms: _251  and  _253
REMARK  106  A    between atoms: _253  and  _254
REMARK  107  A    between atoms: _253  and  _256
REMARK  108  A    between atoms: _256  and  _257
REMARK  109  A    between atoms: _260  and  _262
REMARK  110  A    between atoms: _262  and  _263
REMARK  111  A    between atoms: _262  and  _265
REMARK  112  A    between atoms: _265  and  _266
REMARK  113  A    between atoms: _269  and  _271
REMARK  114  A    between atoms: _271  and  _272
REMARK  115  A    between atoms: _274  and  _276
REMARK  116  A    between atoms: _276  and  _277
REMARK  117  A    between atoms: _276  and  _279
REMARK  118  A    between atoms: _279  and  _280
REMARK  119  A    between atoms: _280  and  _281
REMARK  120  A    between atoms: _281  and  _282
REMARK  121  A    between atoms: _291  and  _293
REMARK  122  A    between atoms: _293  and  _294
REMARK  123  A    between atoms: _293  and  _296
REMARK  124  A    between atoms: _296  and  _297
REMARK  125  A    between atoms: _302  and  _304
REMARK  126  A    between atoms: _304  and  _305
REMARK  127  A    between atoms: _304  and  _307
REMARK  128  A    between atoms: _307  and  _308
REMARK  129  A    between atoms: _308  and  _309
REMARK  130  A    between atoms: _309  and  _310
REMARK  131  A    between atoms: _320  and  _321
REMARK  132  A    between atoms: _326  and  _328
REMARK  133  A    between atoms: _328  and  _329
REMARK  134  A    between atoms: _328  and  _331
REMARK  135  A    between atoms: _331  and  _332
REMARK  136  A    between atoms: _335  and  _337
REMARK  137  A    between atoms: _337  and  _338
REMARK  138  A    between atoms: _337  and  _340
REMARK  139  A    between atoms: _340  and  _341
REMARK  140  A    between atoms: _344  and  _346
REMARK  141  A    between atoms: _346  and  _347
REMARK  142  A    between atoms: _346  and  _349
REMARK  143  A    between atoms: _349  and  _350
REMARK  144  A    between atoms: _353  and  _355
REMARK  145  A    between atoms: _355  and  _356
REMARK  146  A    between atoms: _355  and  _358
REMARK  147  A    between atoms: _358  and  _359
REMARK  148  A    between atoms: _362  and  _364
REMARK  149  A    between atoms: _364  and  _365
REMARK  150  A    between atoms: _364  and  _367
REMARK  151  A    between atoms: _367  and  _368
REMARK  152  A    between atoms: _371  and  _373
REMARK  153  A    between atoms: _373  and  _374
REMARK  154  A    between atoms: _376  and  _378
REMARK  155  A    between atoms: _378  and  _379
REMARK  156  A    between atoms: _382  and  _384
REMARK  157  A    between atoms: _384  and  _385
REMARK  158  A    between atoms: _384  and  _387
REMARK  159  A    between atoms: _387  and  _388
REMARK  160  A    between atoms: _391  and  _393
REMARK  161  A    between atoms: _393  and  _394
REMARK  162  A    between atoms: _393  and  _396
REMARK  163  A    between atoms: _396  and  _397
REMARK  164  A    between atoms: _400  and  _402
REMARK  165  A    between atoms: _402  and  _403
REMARK  166  A    between atoms: _402  and  _405
REMARK  167  A    between atoms: _405  and  _406
REMARK  168  A    between atoms: _409  and  _411
REMARK  169  A    between atoms: _411  and  _412
REMARK  170  A    between atoms: _411  and  _414
REMARK  171  A    between atoms: _417  and  _419
REMARK  172  A    between atoms: _419  and  _420
REMARK  173  A    between atoms: _419  and  _422
REMARK  174  A    between atoms: _422  and  _423
REMARK  175  A    between atoms: _426  and  _428
REMARK  176  A    between atoms: _428  and  _429
REMARK  177  A    between atoms: _428  and  _431
REMARK  178  A    between atoms: _431  and  _432
REMARK  179  A    between atoms: _432  and  _433
REMARK  180  A    between atoms: _433  and  _434
REMARK  181  A    between atoms: _434  and  _435
REMARK  182  A    between atoms: _439  and  _441
REMARK  183  A    between atoms: _441  and  _442
REMARK  184  A    between atoms: _441  and  _444
REMARK  185  A    between atoms: _444  and  _445
REMARK  186  A    between atoms: _448  and  _450
REMARK  187  A    between atoms: _450  and  _451
REMARK  188  A    between atoms: _453  and  _455
REMARK  189  A    between atoms: _455  and  _456
REMARK  190  A    between atoms: _458  and  _460
REMARK  191  A    between atoms: _460  and  _461
REMARK  192  A    between atoms: _460  and  _463
REMARK  193  A    between atoms: _463  and  _464
REMARK  194  A    between atoms: _467  and  _469
REMARK  195  A    between atoms: _469  and  _470
REMARK  196  A    between atoms: _472  and  _474
REMARK  197  A    between atoms: _474  and  _475
REMARK  198  A    between atoms: _477  and  _479
REMARK  199  A    between atoms: _479  and  _480
REMARK  200  A    between atoms: _479  and  _482
REMARK  201  A    between atoms: _482  and  _483
REMARK  202  A    between atoms: _489  and  _491
REMARK  203  A    between atoms: _491  and  _492
REMARK  204  A    between atoms: _491  and  _494
REMARK  205  A    between atoms: _494  and  _495
REMARK  206  A    between atoms: _498  and  _500
REMARK  207  A    between atoms: _500  and  _501
REMARK  208  A    between atoms: _500  and  _503
REMARK  209  A    between atoms: _506  and  _508
REMARK  210  A    between atoms: _508  and  _509
REMARK  211  A    between atoms: _508  and  _511
REMARK  212  A    between atoms: _511  and  _512
REMARK  213  A    between atoms: _516  and  _517
REMARK  214  A    between atoms: _522  and  _524
REMARK  215  A    between atoms: _524  and  _525
REMARK  216  A    between atoms: _524  and  _527
REMARK  217  A    between atoms: _527  and  _528
REMARK  218  A    between atoms: _532  and  _533
REMARK  219  A    between atoms: _538  and  _540
REMARK  220  A    between atoms: _540  and  _541
REMARK  221  A    between atoms: _540  and  _543
REMARK  222  A    between atoms: _546  and  _548
REMARK  223  A    between atoms: _548  and  _549
REMARK  224  A    between atoms: _548  and  _551
REMARK  225  A    between atoms: _551  and  _552
REMARK  226  A    between atoms: _557  and  _559
REMARK  227  A    between atoms: _559  and  _560
REMARK  228  A    between atoms: _559  and  _562
REMARK  229  A    between atoms: _562  and  _563
REMARK  230  A    between atoms: _566  and  _568
REMARK  231  A    between atoms: _568  and  _569
REMARK  232  A    between atoms: _568  and  _571
REMARK  233  A    between atoms: _571  and  _572
REMARK  234  A    between atoms: _575  and  _577
REMARK  235  A    between atoms: _577  and  _578
REMARK  236  A    between atoms: _580  and  _582
REMARK  237  A    between atoms: _582  and  _583
REMARK  238  A    between atoms: _582  and  _585
REMARK  239  A    between atoms: _585  and  _586
REMARK  240  A    between atoms: _586  and  _587
REMARK  241  A    between atoms: _587  and  _588
REMARK                            x       y       z     vdW  Elec       q    Type
REMARK                         _______ _______ _______ _____ _____    ______ ____
ROOT
ATOM      1  C   ALA A   6      -9.449  21.234  -2.097  0.00  0.00    +0.241 C 
ATOM      2  O   ALA A   6      -8.846  20.592  -1.236  0.00  0.00    -0.273 OA
ATOM      3  N   ASP A   7      -8.963  22.350  -2.631  0.00  0.00    -0.297 N 
ATOM      4  H   ASP A   7      -9.503  22.853  -3.364  0.00  0.00    +0.150 HD
ENDROOT
BRANCH   1   5
ATOM      5  CA  ALA A   6     -10.810  20.766  -2.589  0.00  0.00    +0.149 C 
ATOM      6  CB  ALA A   6     -11.829  20.869  -1.455  0.00  0.00    +0.031 C 
BRANCH   5   8
ATOM      7  C   GLY A   5     -10.749  19.105  -4.373  0.00  0.00    +0.243 C 
ATOM      8  N   ALA A   6     -10.755  19.392  -3.076  0.00  0.00    -0.297 N 
ATOM      9  H   ALA A   6     -10.719  18.614  -2.387  0.00  0.00    +0.150 HD
ATOM     10  O   GLY A   5     -10.775  19.970  -5.246  0.00  0.00    -0.273 OA
BRANCH   7  11
ATOM     11  CA  GLY A   5     -10.700  17.629  -4.731  0.00  0.00    +0.176 C 
BRANCH  11  13
ATOM     12  C   THR A   4      -9.331  16.557  -3.055  0.00  0.00    +0.243 C 
ATOM     13  N   GLY A   5     -10.542  16.810  -3.542  0.00  0.00    -0.295 N 
ATOM     14  H   GLY A   5     -11.381  16.419  -3.069  0.00  0.00    +0.150 HD
ATOM     15  O   THR A   4      -8.297  16.977  -3.575  0.00  0.00    -0.273 OA
BRANCH  12  16
ATOM     16  CA  THR A   4      -9.271  15.700  -1.801  0.00  0.00    +0.176 C 
BRANCH  16  19
ATOM     17  C   ASP A   3     -11.182  16.528  -0.575  0.00  0.00    +0.241 C 
ATOM     18  O   ASP A   3     -10.642  17.621  -0.438  0.00  0.00    -0.273 OA
ATOM     19  N   THR A   4     -10.601  15.528  -1.228  0.00  0.00    -0.295 N 
ATOM     20  H   THR A   4     -11.096  14.619  -1.331  0.00  0.00    +0.150 HD
BRANCH  17  21
ATOM     21  CA  ASP A   3     -12.578  16.282  -0.006  0.00  0.00    +0.160 C 
BRANCH  21  23
ATOM     22  C   LEU A   2     -13.017  14.860   1.932  0.00  0.00    +0.241 C 
ATOM     23  N   ASP A   3     -12.599  16.011   1.426  0.00  0.00    -0.297 N 
ATOM     24  H   ASP A   3     -12.272  16.752   2.078  0.00  0.00    +0.150 HD
ATOM     25  O   LEU A   2     -13.353  13.896   1.241  0.00  0.00    -0.273 OA
BRANCH  22  26
ATOM     26  CA  LEU A   2     -13.064  14.798   3.453  0.00  0.00    +0.149 C 
BRANCH  26  28
ATOM     27  C   LEU A   1     -15.202  15.912   3.788  0.00  0.00    +0.238 C 
ATOM     28  N   LEU A   2     -14.488  14.787   3.806  0.00  0.00    -0.297 N 
ATOM     29  H   LEU A   2     -14.945  13.892   4.073  0.00  0.00    +0.150 HD
ATOM     30  O   LEU A   1     -14.710  17.011   3.516  0.00  0.00    -0.274 OA
BRANCH  27  31
ATOM     31  CA  LEU A   1     -16.688  15.795   4.135  0.00  0.00    +0.145 C 
BRANCH  31  32
ATOM     32  N   LEU A   1     -17.078  16.700   5.204  0.00  0.00    -0.238 NA
ATOM     33  H   LEU A   1     -17.189  17.712   4.993  0.00  0.00    +0.142 HD
ENDBRANCH  31  32
BRANCH  31  34
ATOM     34  CB  LEU A   1     -17.530  16.098   2.893  0.00  0.00    +0.026 C 
BRANCH  34  35
ATOM     35  CG  LEU A   1     -17.346  15.249   1.635  0.00  0.00    +0.002 C 
ATOM     36  CD2 LEU A   1     -17.848  13.829   1.890  0.00  0.00    +0.000 C 
ATOM     37  CD1 LEU A   1     -18.123  15.888   0.485  0.00  0.00    +0.000 C 
ENDBRANCH  34  35
ENDBRANCH  31  34
ENDBRANCH  27  31
ENDBRANCH  26  28
BRANCH  26  38
ATOM     38  CB  LEU A   2     -12.355  13.543   3.971  0.00  0.00    +0.029 C 
BRANCH  38  39
ATOM     39  CG  LEU A   2     -12.407  13.337   5.487  0.00  0.00    +0.002 C 
ATOM     40  CD2 LEU A   2     -12.118  14.648   6.227  0.00  0.00    +0.000 C 
ATOM     41  CD1 LEU A   2     -11.375  12.280   5.872  0.00  0.00    +0.000 C 
ENDBRANCH  38  39
ENDBRANCH  26  38
ENDBRANCH  22  26
ENDBRANCH  21  23
BRANCH  21  42
ATOM     42  CB  ASP A   3     -13.446  17.517  -0.249  0.00  0.00    +0.143 C 
BRANCH  42  43
ATOM     43  CG  ASP A   3     -13.944  17.617  -1.664  0.00  0.00    +0.367 C 
ATOM     44  OD2 ASP A   3     -15.145  17.923  -1.825  0.00  0.00    -0.246 OA
ATOM     45  OD1 ASP A   3     -13.148  17.403  -2.604  0.00  0.00    -0.246 OA
ENDBRANCH  42  43
ENDBRANCH  21  42
ENDBRANCH  17  21
ENDBRANCH  16  19
BRANCH  16  46
ATOM     46  CB  THR A   4      -8.626  14.359  -2.174  0.00  0.00    +0.137 C 
ATOM     47  CG2 THR A   4      -8.405  13.505  -0.930  0.00  0.00    +0.034 C 
BRANCH  46  48
ATOM     48  OG1 THR A   4      -9.467  13.669  -3.105  0.00  0.00    -0.382 OA
ATOM     49  HG1 THR A   4      -9.578  14.221  -3.919  0.00  0.00    +0.210 HD
ENDBRANCH  46  48
ENDBRANCH  16  46
ENDBRANCH  12  16
ENDBRANCH  11  13
ENDBRANCH   7  11
ENDBRANCH   5   8
ENDBRANCH   1   5
BRANCH   3  50
ATOM     50  CA  ASP A   7      -7.674  22.871  -2.191  0.00  0.00    +0.160 C 
BRANCH  50  51
ATOM     51  C   ASP A   7      -7.816  23.417  -0.778  0.00  0.00    +0.241 C 
ATOM     52  O   ASP A   7      -6.918  23.263   0.053  0.00  0.00    -0.273 OA
ATOM     53  N   ASP A   8      -8.954  24.047  -0.512  0.00  0.00    -0.297 N 
ATOM     54  H   ASP A   8      -9.684  24.108  -1.250  0.00  0.00    +0.150 HD
BRANCH  53  55
ATOM     55  CA  ASP A   8      -9.206  24.653   0.785  0.00  0.00    +0.160 C 
BRANCH  55  56
ATOM     56  C   ASP A   8     -10.362  24.037   1.565  0.00  0.00    +0.241 C 
ATOM     57  N   THR A   9     -10.419  24.410   2.834  0.00  0.00    -0.295 N 
ATOM     58  H   THR A   9      -9.688  25.057   3.193  0.00  0.00    +0.150 HD
ATOM     59  O   ASP A   8     -11.179  23.271   1.040  0.00  0.00    -0.273 OA
BRANCH  57  60
ATOM     60  CA  THR A   9     -11.448  23.961   3.746  0.00  0.00    +0.176 C 
BRANCH  60  61
ATOM     61  C   THR A   9     -12.545  25.027   3.777  0.00  0.00    +0.243 C 
ATOM     62  O   THR A   9     -12.268  26.205   4.009  0.00  0.00    -0.273 OA
ATOM     63  N   VAL A  10     -13.784  24.616   3.513  0.00  0.00    -0.297 N 
ATOM     64  H   VAL A  10     -13.953  23.611   3.305  0.00  0.00    +0.150 HD
BRANCH  63  65
ATOM     65  CA  VAL A  10     -14.909  25.544   3.509  0.00  0.00    +0.149 C 
BRANCH  65  66
ATOM     66  C   VAL A  10     -16.030  25.050   4.420  0.00  0.00    +0.241 C 
ATOM     67  N   LEU A  11     -16.443  25.889   5.358  0.00  0.00    -0.298 N 
ATOM     68  H   LEU A  11     -16.000  26.826   5.442  0.00  0.00    +0.150 HD
ATOM     69  O   VAL A  10     -16.522  23.934   4.268  0.00  0.00    -0.273 OA
BRANCH  67  70
ATOM     70  CA  LEU A  11     -17.510  25.512   6.272  0.00  0.00    +0.137 C 
BRANCH  70  71
ATOM     71  C   LEU A  11     -18.742  26.386   6.085  0.00  0.00    +0.227 C 
ATOM     72  O   LEU A  11     -18.659  27.512   5.581  0.00  0.00    -0.286 OA
ENDBRANCH  70  71
BRANCH  70  73
ATOM     73  CB  LEU A  11     -17.032  25.610   7.728  0.00  0.00    +0.028 C 
BRANCH  73  74
ATOM     74  CG  LEU A  11     -15.846  24.743   8.166  0.00  0.00    +0.002 C 
ATOM     75  CD2 LEU A  11     -15.661  24.876   9.678  0.00  0.00    +0.000 C 
ATOM     76  CD1 LEU A  11     -16.090  23.288   7.797  0.00  0.00    +0.000 C 
ENDBRANCH  73  74
ENDBRANCH  70  73
ENDBRANCH  67  70
ENDBRANCH  65  66
BRANCH  65  77
ATOM     77  CB  VAL A  10     -15.508  25.725   2.088  0.00  0.00    +0.027 C 
ATOM     78  CG2 VAL A  10     -16.458  26.925   2.086  0.00  0.00    +0.002 C 
ATOM     79  CG1 VAL A  10     -14.404  25.896   1.060  0.00  0.00    +0.002 C 
ENDBRANCH  65  77
ENDBRANCH  63  65
ENDBRANCH  60  61
BRANCH  60  80
ATOM     80  CB  THR A   9     -10.833  23.765   5.130  0.00  0.00    +0.137 C 
ATOM     81  CG2 THR A   9     -11.903  23.530   6.193  0.00  0.00    +0.034 C 
BRANCH  80  82
ATOM     82  OG1 THR A   9      -9.933  22.649   5.073  0.00  0.00    -0.382 OA
ATOM     83  HG1 THR A   9      -9.222  22.834   4.409  0.00  0.00    +0.210 HD
ENDBRANCH  80  82
ENDBRANCH  60  80
ENDBRANCH  57  60
ENDBRANCH  55  56
BRANCH  55  84
ATOM     84  CB  ASP A   8      -9.485  26.148   0.615  0.00  0.00    +0.143 C 
BRANCH  84  85
ATOM     85  CG  ASP A   8      -8.522  26.819  -0.351  0.00  0.00    +0.367 C 
ATOM     86  OD2 ASP A   8      -7.360  27.064   0.041  0.00  0.00    -0.246 OA
ATOM     87  OD1 ASP A   8      -8.927  27.090  -1.505  0.00  0.00    -0.246 OA
ENDBRANCH  84  85
ENDBRANCH  55  84
ENDBRANCH  53  55
ENDBRANCH  50  51
BRANCH  50  88
ATOM     88  CB  ASP A   7      -7.188  24.006  -3.092  0.00  0.00    +0.143 C 
BRANCH  88  89
ATOM     89  CG  ASP A   7      -7.077  23.600  -4.546  0.00  0.00    +0.367 C 
ATOM     90  OD2 ASP A   7      -6.701  22.443  -4.835  0.00  0.00    -0.246 OA
ATOM     91  OD1 ASP A   7      -7.355  24.455  -5.407  0.00  0.00    -0.246 OA
ENDBRANCH  88  89
ENDBRANCH  50  88
ENDBRANCH   3  50
TORSDOF 39
REMARK  Name = ../refined-set-2016/2qnq/2qnq_pocket.pdb
REMARK  241 active torsions:
REMARK  status: ('A' for Active; 'I' for Inactive)
REMARK    1  A    between atoms: _1  and  _3
REMARK    2  A    between atoms: _3  and  _4
REMARK    3  A    between atoms: _3  and  _6
REMARK    4  A    between atoms: _6  and  _7
REMARK    5  A    between atoms: _7  and  _8
REMARK    6  A    between atoms: _8  and  _9
REMARK    7  A    between atoms: _18  and  _20
REMARK    8  A    between atoms: _20  and  _21
REMARK    9  A    between atoms: _20  and  _23
REMARK   10  A    between atoms: _23  and  _24
REMARK   11  A    between atoms: _27  and  _29
REMARK   12  A    between atoms: _29  and  _30
REMARK   13  A    between atoms: _29  and  _32
REMARK   14  A    between atoms: _32  and  _33
REMARK   15  A    between atoms: _36  and  _38
REMARK   16  A    between atoms: _38  and  _39
REMARK   17  A    between atoms: _38  and  _41
REMARK   18  A    between atoms: _41  and  _42
REMARK   19  A    between atoms: _45  and  _47
REMARK   20  A    between atoms: _47  and  _48
REMARK   21  A    between atoms: _47  and  _50
REMARK   22  A    between atoms: _50  and  _51
REMARK   23  A    between atoms: _54  and  _56
REMARK   24  A    between atoms: _56  and  _57
REMARK   25  A    between atoms: _56  and  _59
REMARK   26  A    between atoms: _59  and  _60
REMARK   27  A    between atoms: _63  and  _65
REMARK   28  A    between atoms: _65  and  _66
REMARK   29  A    between atoms: _68  and  _70
REMARK   30  A    between atoms: _70  and  _71
REMARK   31  A    between atoms: _74  and  _76
REMARK   32  A    between atoms: _76  and  _77
REMARK   33  A    between atoms: _76  and  _79
REMARK   34  A    between atoms: _79  and  _80
REMARK   35  A    between atoms: _83  and  _85
REMARK   36  A    between atoms: _85  and  _86
REMARK   37  A    between atoms: _85  and  _88
REMARK   38  A    between atoms: _88  and  _89
REMARK   39  A    between atoms: _92  and  _94
REMARK   40  A    between atoms: _94  and  _95
REMARK   41  A    between atoms: _94  and  _97
REMARK   42  A    between atoms: _97  and  _98
REMARK   43  A    between atoms: _101  and  _103
REMARK   44  A    between atoms: _103  and  _104
REMARK   45  A    between atoms: _103  and  _106
REMARK   46  A    between atoms: _109  and  _111
REMARK   47  A    between atoms: _111  and  _112
REMARK   48  A    between atoms: _111  and  _114
REMARK   49  A    between atoms: _114  and  _115
REMARK   50  A    between atoms: _118  and  _120
REMARK   51  A    between atoms: _120  and  _121
REMARK   52  A    between atoms: _120  and  _123
REMARK   53  A    between atoms: _123  and  _124
REMARK   54  A    between atoms: _124  and  _125
REMARK   55  A    between atoms: _125  and  _126
REMARK   56  A    between atoms: _126  and  _127
REMARK   57  A    between atoms: _131  and  _133
REMARK   58  A    between atoms: _133  and  _134
REMARK   59  A    between atoms: _133  and  _136
REMARK   60  A    between atoms: _136  and  _137
REMARK   61  A    between atoms: _137  and  _138
REMARK   62  A    between atoms: _140  and  _142
REMARK   63  A    between atoms: _142  and  _143
REMARK   64  A    between atoms: _142  and  _145
REMARK   65  A    between atoms: _145  and  _146
REMARK   66  A    between atoms: _149  and  _151
REMARK   67  A    between atoms: _151  and  _152
REMARK   68  A    between atoms: _154  and  _156
REMARK   69  A    between atoms: _156  and  _157
REMARK   70  A    between atoms: _159  and  _161
REMARK   71  A    between atoms: _161  and  _162
REMARK   72  A    between atoms: _161  and  _164
REMARK   73  A    between atoms: _164  and  _165
REMARK   74  A    between atoms: _168  and  _170
REMARK   75  A    between atoms: _170  and  _171
REMARK   76  A    between atoms: _173  and  _175
REMARK   77  A    between atoms: _175  and  _176
REMARK   78  A    between atoms: _178  and  _180
REMARK   79  A    between atoms: _180  and  _181
REMARK   80  A    between atoms: _180  and  _183
REMARK   81  A    between atoms: _183  and  _184
REMARK   82  A    between atoms: _190  and  _192
REMARK   83  A    between atoms: _192  and  _193
REMARK   84  A    between atoms: _192  and  _195
REMARK   85  A    between atoms: _195  and  _196
REMARK   86  A    between atoms: _199  and  _201
REMARK   87  A    between atoms: _201  and  _202
REMARK   88  A    between atoms: _201  and  _204
REMARK   89  A    between atoms: _207  and  _209
REMARK   90  A    between atoms: _209  and  _210
REMARK   91  A    between atoms: _209  and  _212
REMARK   92  A    between atoms: _212  and  _213
REMARK   93  A    between atoms: _216  and  _218
REMARK   94  A    between atoms: _218  and  _219
REMARK   95  A    between atoms: _218  and  _221
REMARK   96  A    between atoms: _221  and  _222
REMARK   97  A    between atoms: _226  and  _227
REMARK   98  A    between atoms: _232  and  _234
REMARK   99  A    between atoms: _234  and  _235
REMARK  100  A    between atoms: _234  and  _237
REMARK  101  A    between atoms: _240  and  _242
REMARK  102  A    between atoms: _242  and  _243
REMARK  103  A    between atoms: _242  and  _245
REMARK  104  A    between atoms: _245  and  _246
REMARK  105  A    between atoms: _251  and  _253
REMARK  106  A    between atoms: _253  and  _254
REMARK  107  A    between atoms: _253  and  _256
REMARK  108  A    between atoms: _256  and  _257
REMARK  109  A    between atoms: _260  and  _262
REMARK  110  A    between atoms: _262  and  _263
REMARK  111  A    between atoms: _262  and  _265
REMARK  112  A    between atoms: _265  and  _266
REMARK  113  A    between atoms: _269  and  _271
REMARK  114  A    between atoms: _271  and  _272
REMARK  115  A    between atoms: _274  and  _276
REMARK  116  A    between atoms: _276  and  _277
REMARK  117  A    between atoms: _276  and  _279
REMARK  118  A    between atoms: _279  and  _280
REMARK  119  A    between atoms: _280  and  _281
REMARK  120  A    between atoms: _281  and  _282
REMARK  121  A    between atoms: _291  and  _293
REMARK  122  A    between atoms: _293  and  _294
REMARK  123  A    between atoms: _293  and  _296
REMARK  124  A    between atoms: _296  and  _297
REMARK  125  A    between atoms: _302  and  _304
REMARK  126  A    between atoms: _304  and  _305
REMARK  127  A    between atoms: _304  and  _307
REMARK  128  A    between atoms: _307  and  _308
REMARK  129  A    between atoms: _308  and  _309
REMARK  130  A    between atoms: _309  and  _310
REMARK  131  A    between atoms: _320  and  _321
REMARK  132  A    between atoms: _326  and  _328
REMARK  133  A    between atoms: _328  and  _329
REMARK  134  A    between atoms: _328  and  _331
REMARK  135  A    between atoms: _331  and  _332
REMARK  136  A    between atoms: _335  and  _337
REMARK  137  A    between atoms: _337  and  _338
REMARK  138  A    between atoms: _337  and  _340
REMARK  139  A    between atoms: _340  and  _341
REMARK  140  A    between atoms: _344  and  _346
REMARK  141  A    between atoms: _346  and  _347
REMARK  142  A    between atoms: _346  and  _349
REMARK  143  A    between atoms: _349  and  _350
REMARK  144  A    between atoms: _353  and  _355
REMARK  145  A    between atoms: _355  and  _356
REMARK  146  A    between atoms: _355  and  _358
REMARK  147  A    between atoms: _358  and  _359
REMARK  148  A    between atoms: _362  and  _364
REMARK  149  A    between atoms: _364  and  _365
REMARK  150  A    between atoms: _364  and  _367
REMARK  151  A    between atoms: _367  and  _368
REMARK  152  A    between atoms: _371  and  _373
REMARK  153  A    between atoms: _373  and  _374
REMARK  154  A    between atoms: _376  and  _378
REMARK  155  A    between atoms: _378  and  _379
REMARK  156  A    between atoms: _382  and  _384
REMARK  157  A    between atoms: _384  and  _385
REMARK  158  A    between atoms: _384  and  _387
REMARK  159  A    between atoms: _387  and  _388
REMARK  160  A    between atoms: _391  and  _393
REMARK  161  A    between atoms: _393  and  _394
REMARK  162  A    between atoms: _393  and  _396
REMARK  163  A    between atoms: _396  and  _397
REMARK  164  A    between atoms: _400  and  _402
REMARK  165  A    between atoms: _402  and  _403
REMARK  166  A    between atoms: _402  and  _405
REMARK  167  A    between atoms: _405  and  _406
REMARK  168  A    between atoms: _409  and  _411
REMARK  169  A    between atoms: _411  and  _412
REMARK  170  A    between atoms: _411  and  _414
REMARK  171  A    between atoms: _417  and  _419
REMARK  172  A    between atoms: _419  and  _420
REMARK  173  A    between atoms: _419  and  _422
REMARK  174  A    between atoms: _422  and  _423
REMARK  175  A    between atoms: _426  and  _428
REMARK  176  A    between atoms: _428  and  _429
REMARK  177  A    between atoms: _428  and  _431
REMARK  178  A    between atoms: _431  and  _432
REMARK  179  A    between atoms: _432  and  _433
REMARK  180  A    between atoms: _433  and  _434
REMARK  181  A    between atoms: _434  and  _435
REMARK  182  A    between atoms: _439  and  _441
REMARK  183  A    between atoms: _441  and  _442
REMARK  184  A    between atoms: _441  and  _444
REMARK  185  A    between atoms: _444  and  _445
REMARK  186  A    between atoms: _448  and  _450
REMARK  187  A    between atoms: _450  and  _451
REMARK  188  A    between atoms: _453  and  _455
REMARK  189  A    between atoms: _455  and  _456
REMARK  190  A    between atoms: _458  and  _460
REMARK  191  A    between atoms: _460  and  _461
REMARK  192  A    between atoms: _460  and  _463
REMARK  193  A    between atoms: _463  and  _464
REMARK  194  A    between atoms: _467  and  _469
REMARK  195  A    between atoms: _469  and  _470
REMARK  196  A    between atoms: _472  and  _474
REMARK  197  A    between atoms: _474  and  _475
REMARK  198  A    between atoms: _477  and  _479
REMARK  199  A    between atoms: _479  and  _480
REMARK  200  A    between atoms: _479  and  _482
REMARK  201  A    between atoms: _482  and  _483
REMARK  202  A    between atoms: _489  and  _491
REMARK  203  A    between atoms: _491  and  _492
REMARK  204  A    between atoms: _491  and  _494
REMARK  205  A    between atoms: _494  and  _495
REMARK  206  A    between atoms: _498  and  _500
REMARK  207  A    between atoms: _500  and  _501
REMARK  208  A    between atoms: _500  and  _503
REMARK  209  A    between atoms: _506  and  _508
REMARK  210  A    between atoms: _508  and  _509
REMARK  211  A    between atoms: _508  and  _511
REMARK  212  A    between atoms: _511  and  _512
REMARK  213  A    between atoms: _516  and  _517
REMARK  214  A    between atoms: _522  and  _524
REMARK  215  A    between atoms: _524  and  _525
REMARK  216  A    between atoms: _524  and  _527
REMARK  217  A    between atoms: _527  and  _528
REMARK  218  A    between atoms: _532  and  _533
REMARK  219  A    between atoms: _538  and  _540
REMARK  220  A    between atoms: _540  and  _541
REMARK  221  A    between atoms: _540  and  _543
REMARK  222  A    between atoms: _546  and  _548
REMARK  223  A    between atoms: _548  and  _549
REMARK  224  A    between atoms: _548  and  _551
REMARK  225  A    between atoms: _551  and  _552
REMARK  226  A    between atoms: _557  and  _559
REMARK  227  A    between atoms: _559  and  _560
REMARK  228  A    between atoms: _559  and  _562
REMARK  229  A    between atoms: _562  and  _563
REMARK  230  A    between atoms: _566  and  _568
REMARK  231  A    between atoms: _568  and  _569
REMARK  232  A    between atoms: _568  and  _571
REMARK  233  A    between atoms: _571  and  _572
REMARK  234  A    between atoms: _575  and  _577
REMARK  235  A    between atoms: _577  and  _578
REMARK  236  A    between atoms: _580  and  _582
REMARK  237  A    between atoms: _582  and  _583
REMARK  238  A    between atoms: _582  and  _585
REMARK  239  A    between atoms: _585  and  _586
REMARK  240  A    between atoms: _586  and  _587
REMARK  241  A    between atoms: _587  and  _588
REMARK                            x       y       z     vdW  Elec       q    Type
REMARK                         _______ _______ _______ _____ _____    ______ ____
ROOT
ATOM      1  CG  LYS A   1      -9.726  32.818  -1.153  0.00  0.00    -0.000 C 
ENDROOT
BRANCH   1   2
ATOM      2  CB  LYS A   1     -10.575  33.796  -0.324  0.00  0.00    +0.025 C 
BRANCH   2   3
ATOM      3  CA  LYS A   1     -11.086  34.975  -1.163  0.00  0.00    +0.133 C 
BRANCH   3   4
ATOM      4  N   LYS A   1     -11.692  35.997  -0.330  0.00  0.00    -0.239 NA
ATOM      5  H   LYS A   1     -12.716  35.967  -0.153  0.00  0.00    +0.142 HD
ENDBRANCH   3   4
BRANCH   3   6
ATOM      6  C   LYS A   1     -12.083  34.473  -2.207  0.00  0.00    +0.224 C 
ATOM      7  O   LYS A   1     -13.282  34.398  -1.955  0.00  0.00    -0.287 OA
ENDBRANCH   3   6
ENDBRANCH   2   3
ENDBRANCH   1   2
BRANCH   1   8
ATOM      8  CD  LYS A   1      -9.216  31.643  -0.332  0.00  0.00    -0.024 C 
BRANCH   8   9
ATOM      9  CE  LYS A   1      -8.513  30.602  -1.201  0.00  0.00    -0.086 C 
BRANCH   9  10
ATOM     10  NZ  LYS A   1      -7.289  31.130  -1.856  0.00  0.00    +0.380 N 
ATOM     11  HZ1 LYS A   1      -6.616  31.444  -1.128  0.00  0.00    -0.089 HD
ATOM     12  HZ2 LYS A   1      -6.855  30.381  -2.432  0.00  0.00    -0.089 HD
ATOM     13  HZ3 LYS A   1      -7.543  31.934  -2.465  0.00  0.00    -0.089 HD
ENDBRANCH   9  10
ENDBRANCH   8   9
ENDBRANCH   1   8
TORSDOF 7
REMARK  Name = ../refined-set-2016/2qnq/2qnq_pocket.pdb
REMARK  241 active torsions:
REMARK  status: ('A' for Active; 'I' for Inactive)
REMARK    1  A    between atoms: _1  and  _3
REMARK    2  A    between atoms: _3  and  _4
REMARK    3  A    between atoms: _3  and  _6
REMARK    4  A    between atoms: _6  and  _7
REMARK    5  A    between atoms: _7  and  _8
REMARK    6  A    between atoms: _8  and  _9
REMARK    7  A    between atoms: _18  and  _20
REMARK    8  A    between atoms: _20  and  _21
REMARK    9  A    between atoms: _20  and  _23
REMARK   10  A    between atoms: _23  and  _24
REMARK   11  A    between atoms: _27  and  _29
REMARK   12  A    between atoms: _29  and  _30
REMARK   13  A    between atoms: _29  and  _32
REMARK   14  A    between atoms: _32  and  _33
REMARK   15  A    between atoms: _36  and  _38
REMARK   16  A    between atoms: _38  and  _39
REMARK   17  A    between atoms: _38  and  _41
REMARK   18  A    between atoms: _41  and  _42
REMARK   19  A    between atoms: _45  and  _47
REMARK   20  A    between atoms: _47  and  _48
REMARK   21  A    between atoms: _47  and  _50
REMARK   22  A    between atoms: _50  and  _51
REMARK   23  A    between atoms: _54  and  _56
REMARK   24  A    between atoms: _56  and  _57
REMARK   25  A    between atoms: _56  and  _59
REMARK   26  A    between atoms: _59  and  _60
REMARK   27  A    between atoms: _63  and  _65
REMARK   28  A    between atoms: _65  and  _66
REMARK   29  A    between atoms: _68  and  _70
REMARK   30  A    between atoms: _70  and  _71
REMARK   31  A    between atoms: _74  and  _76
REMARK   32  A    between atoms: _76  and  _77
REMARK   33  A    between atoms: _76  and  _79
REMARK   34  A    between atoms: _79  and  _80
REMARK   35  A    between atoms: _83  and  _85
REMARK   36  A    between atoms: _85  and  _86
REMARK   37  A    between atoms: _85  and  _88
REMARK   38  A    between atoms: _88  and  _89
REMARK   39  A    between atoms: _92  and  _94
REMARK   40  A    between atoms: _94  and  _95
REMARK   41  A    between atoms: _94  and  _97
REMARK   42  A    between atoms: _97  and  _98
REMARK   43  A    between atoms: _101  and  _103
REMARK   44  A    between atoms: _103  and  _104
REMARK   45  A    between atoms: _103  and  _106
REMARK   46  A    between atoms: _109  and  _111
REMARK   47  A    between atoms: _111  and  _112
REMARK   48  A    between atoms: _111  and  _114
REMARK   49  A    between atoms: _114  and  _115
REMARK   50  A    between atoms: _118  and  _120
REMARK   51  A    between atoms: _120  and  _121
REMARK   52  A    between atoms: _120  and  _123
REMARK   53  A    between atoms: _123  and  _124
REMARK   54  A    between atoms: _124  and  _125
REMARK   55  A    between atoms: _125  and  _126
REMARK   56  A    between atoms: _126  and  _127
REMARK   57  A    between atoms: _131  and  _133
REMARK   58  A    between atoms: _133  and  _134
REMARK   59  A    between atoms: _133  and  _136
REMARK   60  A    between atoms: _136  and  _137
REMARK   61  A    between atoms: _137  and  _138
REMARK   62  A    between atoms: _140  and  _142
REMARK   63  A    between atoms: _142  and  _143
REMARK   64  A    between atoms: _142  and  _145
REMARK   65  A    between atoms: _145  and  _146
REMARK   66  A    between atoms: _149  and  _151
REMARK   67  A    between atoms: _151  and  _152
REMARK   68  A    between atoms: _154  and  _156
REMARK   69  A    between atoms: _156  and  _157
REMARK   70  A    between atoms: _159  and  _161
REMARK   71  A    between atoms: _161  and  _162
REMARK   72  A    between atoms: _161  and  _164
REMARK   73  A    between atoms: _164  and  _165
REMARK   74  A    between atoms: _168  and  _170
REMARK   75  A    between atoms: _170  and  _171
REMARK   76  A    between atoms: _173  and  _175
REMARK   77  A    between atoms: _175  and  _176
REMARK   78  A    between atoms: _178  and  _180
REMARK   79  A    between atoms: _180  and  _181
REMARK   80  A    between atoms: _180  and  _183
REMARK   81  A    between atoms: _183  and  _184
REMARK   82  A    between atoms: _190  and  _192
REMARK   83  A    between atoms: _192  and  _193
REMARK   84  A    between atoms: _192  and  _195
REMARK   85  A    between atoms: _195  and  _196
REMARK   86  A    between atoms: _199  and  _201
REMARK   87  A    between atoms: _201  and  _202
REMARK   88  A    between atoms: _201  and  _204
REMARK   89  A    between atoms: _207  and  _209
REMARK   90  A    between atoms: _209  and  _210
REMARK   91  A    between atoms: _209  and  _212
REMARK   92  A    between atoms: _212  and  _213
REMARK   93  A    between atoms: _216  and  _218
REMARK   94  A    between atoms: _218  and  _219
REMARK   95  A    between atoms: _218  and  _221
REMARK   96  A    between atoms: _221  and  _222
REMARK   97  A    between atoms: _226  and  _227
REMARK   98  A    between atoms: _232  and  _234
REMARK   99  A    between atoms: _234  and  _235
REMARK  100  A    between atoms: _234  and  _237
REMARK  101  A    between atoms: _240  and  _242
REMARK  102  A    between atoms: _242  and  _243
REMARK  103  A    between atoms: _242  and  _245
REMARK  104  A    between atoms: _245  and  _246
REMARK  105  A    between atoms: _251  and  _253
REMARK  106  A    between atoms: _253  and  _254
REMARK  107  A    between atoms: _253  and  _256
REMARK  108  A    between atoms: _256  and  _257
REMARK  109  A    between atoms: _260  and  _262
REMARK  110  A    between atoms: _262  and  _263
REMARK  111  A    between atoms: _262  and  _265
REMARK  112  A    between atoms: _265  and  _266
REMARK  113  A    between atoms: _269  and  _271
REMARK  114  A    between atoms: _271  and  _272
REMARK  115  A    between atoms: _274  and  _276
REMARK  116  A    between atoms: _276  and  _277
REMARK  117  A    between atoms: _276  and  _279
REMARK  118  A    between atoms: _279  and  _280
REMARK  119  A    between atoms: _280  and  _281
REMARK  120  A    between atoms: _281  and  _282
REMARK  121  A    between atoms: _291  and  _293
REMARK  122  A    between atoms: _293  and  _294
REMARK  123  A    between atoms: _293  and  _296
REMARK  124  A    between atoms: _296  and  _297
REMARK  125  A    between atoms: _302  and  _304
REMARK  126  A    between atoms: _304  and  _305
REMARK  127  A    between atoms: _304  and  _307
REMARK  128  A    between atoms: _307  and  _308
REMARK  129  A    between atoms: _308  and  _309
REMARK  130  A    between atoms: _309  and  _310
REMARK  131  A    between atoms: _320  and  _321
REMARK  132  A    between atoms: _326  and  _328
REMARK  133  A    between atoms: _328  and  _329
REMARK  134  A    between atoms: _328  and  _331
REMARK  135  A    between atoms: _331  and  _332
REMARK  136  A    between atoms: _335  and  _337
REMARK  137  A    between atoms: _337  and  _338
REMARK  138  A    between atoms: _337  and  _340
REMARK  139  A    between atoms: _340  and  _341
REMARK  140  A    between atoms: _344  and  _346
REMARK  141  A    between atoms: _346  and  _347
REMARK  142  A    between atoms: _346  and  _349
REMARK  143  A    between atoms: _349  and  _350
REMARK  144  A    between atoms: _353  and  _355
REMARK  145  A    between atoms: _355  and  _356
REMARK  146  A    between atoms: _355  and  _358
REMARK  147  A    between atoms: _358  and  _359
REMARK  148  A    between atoms: _362  and  _364
REMARK  149  A    between atoms: _364  and  _365
REMARK  150  A    between atoms: _364  and  _367
REMARK  151  A    between atoms: _367  and  _368
REMARK  152  A    between atoms: _371  and  _373
REMARK  153  A    between atoms: _373  and  _374
REMARK  154  A    between atoms: _376  and  _378
REMARK  155  A    between atoms: _378  and  _379
REMARK  156  A    between atoms: _382  and  _384
REMARK  157  A    between atoms: _384  and  _385
REMARK  158  A    between atoms: _384  and  _387
REMARK  159  A    between atoms: _387  and  _388
REMARK  160  A    between atoms: _391  and  _393
REMARK  161  A    between atoms: _393  and  _394
REMARK  162  A    between atoms: _393  and  _396
REMARK  163  A    between atoms: _396  and  _397
REMARK  164  A    between atoms: _400  and  _402
REMARK  165  A    between atoms: _402  and  _403
REMARK  166  A    between atoms: _402  and  _405
REMARK  167  A    between atoms: _405  and  _406
REMARK  168  A    between atoms: _409  and  _411
REMARK  169  A    between atoms: _411  and  _412
REMARK  170  A    between atoms: _411  and  _414
REMARK  171  A    between atoms: _417  and  _419
REMARK  172  A    between atoms: _419  and  _420
REMARK  173  A    between atoms: _419  and  _422
REMARK  174  A    between atoms: _422  and  _423
REMARK  175  A    between atoms: _426  and  _428
REMARK  176  A    between atoms: _428  and  _429
REMARK  177  A    between atoms: _428  and  _431
REMARK  178  A    between atoms: _431  and  _432
REMARK  179  A    between atoms: _432  and  _433
REMARK  180  A    between atoms: _433  and  _434
REMARK  181  A    between atoms: _434  and  _435
REMARK  182  A    between atoms: _439  and  _441
REMARK  183  A    between atoms: _441  and  _442
REMARK  184  A    between atoms: _441  and  _444
REMARK  185  A    between atoms: _444  and  _445
REMARK  186  A    between atoms: _448  and  _450
REMARK  187  A    between atoms: _450  and  _451
REMARK  188  A    between atoms: _453  and  _455
REMARK  189  A    between atoms: _455  and  _456
REMARK  190  A    between atoms: _458  and  _460
REMARK  191  A    between atoms: _460  and  _461
REMARK  192  A    between atoms: _460  and  _463
REMARK  193  A    between atoms: _463  and  _464
REMARK  194  A    between atoms: _467  and  _469
REMARK  195  A    between atoms: _469  and  _470
REMARK  196  A    between atoms: _472  and  _474
REMARK  197  A    between atoms: _474  and  _475
REMARK  198  A    between atoms: _477  and  _479
REMARK  199  A    between atoms: _479  and  _480
REMARK  200  A    between atoms: _479  and  _482
REMARK  201  A    between atoms: _482  and  _483
REMARK  202  A    between atoms: _489  and  _491
REMARK  203  A    between atoms: _491  and  _492
REMARK  204  A    between atoms: _491  and  _494
REMARK  205  A    between atoms: _494  and  _495
REMARK  206  A    between atoms: _498  and  _500
REMARK  207  A    between atoms: _500  and  _501
REMARK  208  A    between atoms: _500  and  _503
REMARK  209  A    between atoms: _506  and  _508
REMARK  210  A    between atoms: _508  and  _509
REMARK  211  A    between atoms: _508  and  _511
REMARK  212  A    between atoms: _511  and  _512
REMARK  213  A    between atoms: _516  and  _517
REMARK  214  A    between atoms: _522  and  _524
REMARK  215  A    between atoms: _524  and  _525
REMARK  216  A    between atoms: _524  and  _527
REMARK  217  A    between atoms: _527  and  _528
REMARK  218  A    between atoms: _532  and  _533
REMARK  219  A    between atoms: _538  and  _540
REMARK  220  A    between atoms: _540  and  _541
REMARK  221  A    between atoms: _540  and  _543
REMARK  222  A    between atoms: _546  and  _548
REMARK  223  A    between atoms: _548  and  _549
REMARK  224  A    between atoms: _548  and  _551
REMARK  225  A    between atoms: _551  and  _552
REMARK  226  A    between atoms: _557  and  _559
REMARK  227  A    between atoms: _559  and  _560
REMARK  228  A    between atoms: _559  and  _562
REMARK  229  A    between atoms: _562  and  _563
REMARK  230  A    between atoms: _566  and  _568
REMARK  231  A    between atoms: _568  and  _569
REMARK  232  A    between atoms: _568  and  _571
REMARK  233  A    between atoms: _571  and  _572
REMARK  234  A    between atoms: _575  and  _577
REMARK  235  A    between atoms: _577  and  _578
REMARK  236  A    between atoms: _580  and  _582
REMARK  237  A    between atoms: _582  and  _583
REMARK  238  A    between atoms: _582  and  _585
REMARK  239  A    between atoms: _585  and  _586
REMARK  240  A    between atoms: _586  and  _587
REMARK  241  A    between atoms: _587  and  _588
REMARK                            x       y       z     vdW  Elec       q    Type
REMARK                         _______ _______ _______ _____ _____    ______ ____
ROOT
ATOM      1  C   ILE A   4     -19.082  24.097 -11.215  0.00  0.00    +0.241 C 
ATOM      2  N   GLY A   5     -19.759  25.039 -10.562  0.00  0.00    -0.295 N 
ATOM      3  H   GLY A   5     -19.702  25.092  -9.525  0.00  0.00    +0.150 HD
ATOM      4  O   ILE A   4     -19.079  24.009 -12.443  0.00  0.00    -0.273 OA
ENDROOT
BRANCH   2   5
ATOM      5  CA  GLY A   5     -20.577  25.993 -11.289  0.00  0.00    +0.176 C 
BRANCH   5   6
ATOM      6  C   GLY A   5     -20.008  27.395 -11.421  0.00  0.00    +0.243 C 
ATOM      7  N   GLY A   6     -18.769  27.599 -10.984  0.00  0.00    -0.295 N 
ATOM      8  H   GLY A   6     -18.228  26.814 -10.568  0.00  0.00    +0.150 HD
ATOM      9  O   GLY A   5     -20.691  28.291 -11.921  0.00  0.00    -0.273 OA
BRANCH   7  10
ATOM     10  CA  GLY A   6     -18.171  28.920 -11.088  0.00  0.00    +0.176 C 
BRANCH  10  11
ATOM     11  C   GLY A   6     -17.513  29.404  -9.807  0.00  0.00    +0.243 C 
ATOM     12  O   GLY A   6     -17.386  28.650  -8.842  0.00  0.00    -0.273 OA
ATOM     13  N   PHE A   7     -17.095  30.668  -9.804  0.00  0.00    -0.297 N 
ATOM     14  H   PHE A   7     -17.240  31.245 -10.657  0.00  0.00    +0.150 HD
BRANCH  13  15
ATOM     15  CA  PHE A   7     -16.441  31.273  -8.648  0.00  0.00    +0.153 C 
BRANCH  15  16
ATOM     16  C   PHE A   7     -17.389  32.079  -7.769  0.00  0.00    +0.241 C 
ATOM     17  N   ILE A   8     -17.130  32.058  -6.465  0.00  0.00    -0.298 N 
ATOM     18  H   ILE A   8     -16.332  31.487  -6.122  0.00  0.00    +0.150 HD
ATOM     19  O   PHE A   7     -18.330  32.702  -8.259  0.00  0.00    -0.273 OA
BRANCH  17  20
ATOM     20  CA  ILE A   8     -17.927  32.809  -5.497  0.00  0.00    +0.137 C 
BRANCH  20  21
ATOM     21  CB  ILE A   8     -18.944  31.912  -4.740  0.00  0.00    +0.026 C 
ATOM     22  CG2 ILE A   8     -19.822  31.162  -5.735  0.00  0.00    +0.002 C 
BRANCH  21  23
ATOM     23  CG1 ILE A   8     -18.203  30.943  -3.819  0.00  0.00    +0.002 C 
ATOM     24  CD1 ILE A   8     -19.110  30.141  -2.912  0.00  0.00    +0.000 C 
ENDBRANCH  21  23
ENDBRANCH  20  21
BRANCH  20  25
ATOM     25  C   ILE A   8     -16.959  33.407  -4.480  0.00  0.00    +0.227 C 
ATOM     26  O   ILE A   8     -15.790  33.026  -4.433  0.00  0.00    -0.286 OA
ENDBRANCH  20  25
ENDBRANCH  17  20
ENDBRANCH  15  16
BRANCH  15  27
ATOM     27  CB  PHE A   7     -15.309  32.193  -9.100  0.00  0.00    +0.055 C 
BRANCH  27  28
ATOM     28  CG  PHE A   7     -14.147  31.473  -9.702  0.00  0.00    -0.020 A 
ATOM     29  CD2 PHE A   7     -12.963  31.318  -8.981  0.00  0.00    -0.004 A 
ATOM     30  CE2 PHE A   7     -11.872  30.639  -9.528  0.00  0.00    -0.000 A 
ATOM     31  CZ  PHE A   7     -11.965  30.106 -10.814  0.00  0.00    -0.000 A 
ATOM     32  CE1 PHE A   7     -13.148  30.256 -11.545  0.00  0.00    -0.000 A 
ATOM     33  CD1 PHE A   7     -14.231  30.938 -10.984  0.00  0.00    -0.004 A 
ENDBRANCH  27  28
ENDBRANCH  15  27
ENDBRANCH  13  15
ENDBRANCH  10  11
ENDBRANCH   7  10
ENDBRANCH   5   6
ENDBRANCH   2   5
BRANCH   1  34
ATOM     34  CA  ILE A   4     -18.260  23.123 -10.361  0.00  0.00    +0.149 C 
BRANCH  34  36
ATOM     35  C   GLY A   3     -16.956  24.824  -9.229  0.00  0.00    +0.243 C 
ATOM     36  N   ILE A   4     -17.760  23.770  -9.154  0.00  0.00    -0.297 N 
ATOM     37  H   ILE A   4     -18.037  23.401  -8.222  0.00  0.00    +0.150 HD
ATOM     38  O   GLY A   3     -16.597  25.313 -10.301  0.00  0.00    -0.273 OA
BRANCH  35  39
ATOM     39  CA  GLY A   3     -16.491  25.422  -7.919  0.00  0.00    +0.176 C 
BRANCH  39  42
ATOM     40  C   GLY A   2     -14.458  26.718  -7.666  0.00  0.00    +0.243 C 
ATOM     41  O   GLY A   2     -13.892  25.821  -7.049  0.00  0.00    -0.273 OA
ATOM     42  N   GLY A   3     -15.703  26.622  -8.121  0.00  0.00    -0.295 N 
ATOM     43  H   GLY A   3     -16.121  27.425  -8.633  0.00  0.00    +0.150 HD
BRANCH  40  44
ATOM     44  CA  GLY A   2     -13.749  28.021  -7.941  0.00  0.00    +0.176 C 
BRANCH  44  47
ATOM     45  C   ILE A   1     -13.689  29.421  -5.978  0.00  0.00    +0.238 C 
ATOM     46  O   ILE A   1     -14.816  29.865  -6.206  0.00  0.00    -0.274 OA
ATOM     47  N   GLY A   2     -13.085  28.534  -6.759  0.00  0.00    -0.296 N 
ATOM     48  H   GLY A   2     -12.128  28.204  -6.521  0.00  0.00    +0.150 HD
BRANCH  45  49
ATOM     49  CA  ILE A   1     -12.888  29.898  -4.776  0.00  0.00    +0.145 C 
BRANCH  49  50
ATOM     50  N   ILE A   1     -13.114  31.321  -4.577  0.00  0.00    -0.238 NA
ATOM     51  H   ILE A   1     -14.073  31.672  -4.380  0.00  0.00    +0.142 HD
ENDBRANCH  49  50
BRANCH  49  52
ATOM     52  CB  ILE A   1     -13.255  29.054  -3.521  0.00  0.00    +0.025 C 
ATOM     53  CG2 ILE A   1     -12.325  29.409  -2.373  0.00  0.00    +0.002 C 
BRANCH  52  54
ATOM     54  CG1 ILE A   1     -14.706  29.285  -3.111  0.00  0.00    +0.002 C 
ATOM     55  CD1 ILE A   1     -15.141  28.395  -1.958  0.00  0.00    +0.000 C 
ENDBRANCH  52  54
ENDBRANCH  49  52
ENDBRANCH  45  49
ENDBRANCH  44  47
ENDBRANCH  40  44
ENDBRANCH  39  42
ENDBRANCH  35  39
ENDBRANCH  34  36
BRANCH  34  56
ATOM     56  CB  ILE A   4     -19.131  21.877 -10.023  0.00  0.00    +0.027 C 
ATOM     57  CG2 ILE A   4     -20.370  22.284  -9.239  0.00  0.00    +0.002 C 
BRANCH  56  58
ATOM     58  CG1 ILE A   4     -19.549  21.164 -11.313  0.00  0.00    +0.002 C 
ATOM     59  CD1 ILE A   4     -18.401  20.503 -12.053  0.00  0.00    +0.000 C 
ENDBRANCH  56  58
ENDBRANCH  34  56
ENDBRANCH   1  34
TORSDOF 24
REMARK  Name = ../refined-set-2016/2qnq/2qnq_pocket.pdb
REMARK  241 active torsions:
REMARK  status: ('A' for Active; 'I' for Inactive)
REMARK    1  A    between atoms: _1  and  _3
REMARK    2  A    between atoms: _3  and  _4
REMARK    3  A    between atoms: _3  and  _6
REMARK    4  A    between atoms: _6  and  _7
REMARK    5  A    between atoms: _7  and  _8
REMARK    6  A    between atoms: _8  and  _9
REMARK    7  A    between atoms: _18  and  _20
REMARK    8  A    between atoms: _20  and  _21
REMARK    9  A    between atoms: _20  and  _23
REMARK   10  A    between atoms: _23  and  _24
REMARK   11  A    between atoms: _27  and  _29
REMARK   12  A    between atoms: _29  and  _30
REMARK   13  A    between atoms: _29  and  _32
REMARK   14  A    between atoms: _32  and  _33
REMARK   15  A    between atoms: _36  and  _38
REMARK   16  A    between atoms: _38  and  _39
REMARK   17  A    between atoms: _38  and  _41
REMARK   18  A    between atoms: _41  and  _42
REMARK   19  A    between atoms: _45  and  _47
REMARK   20  A    between atoms: _47  and  _48
REMARK   21  A    between atoms: _47  and  _50
REMARK   22  A    between atoms: _50  and  _51
REMARK   23  A    between atoms: _54  and  _56
REMARK   24  A    between atoms: _56  and  _57
REMARK   25  A    between atoms: _56  and  _59
REMARK   26  A    between atoms: _59  and  _60
REMARK   27  A    between atoms: _63  and  _65
REMARK   28  A    between atoms: _65  and  _66
REMARK   29  A    between atoms: _68  and  _70
REMARK   30  A    between atoms: _70  and  _71
REMARK   31  A    between atoms: _74  and  _76
REMARK   32  A    between atoms: _76  and  _77
REMARK   33  A    between atoms: _76  and  _79
REMARK   34  A    between atoms: _79  and  _80
REMARK   35  A    between atoms: _83  and  _85
REMARK   36  A    between atoms: _85  and  _86
REMARK   37  A    between atoms: _85  and  _88
REMARK   38  A    between atoms: _88  and  _89
REMARK   39  A    between atoms: _92  and  _94
REMARK   40  A    between atoms: _94  and  _95
REMARK   41  A    between atoms: _94  and  _97
REMARK   42  A    between atoms: _97  and  _98
REMARK   43  A    between atoms: _101  and  _103
REMARK   44  A    between atoms: _103  and  _104
REMARK   45  A    between atoms: _103  and  _106
REMARK   46  A    between atoms: _109  and  _111
REMARK   47  A    between atoms: _111  and  _112
REMARK   48  A    between atoms: _111  and  _114
REMARK   49  A    between atoms: _114  and  _115
REMARK   50  A    between atoms: _118  and  _120
REMARK   51  A    between atoms: _120  and  _121
REMARK   52  A    between atoms: _120  and  _123
REMARK   53  A    between atoms: _123  and  _124
REMARK   54  A    between atoms: _124  and  _125
REMARK   55  A    between atoms: _125  and  _126
REMARK   56  A    between atoms: _126  and  _127
REMARK   57  A    between atoms: _131  and  _133
REMARK   58  A    between atoms: _133  and  _134
REMARK   59  A    between atoms: _133  and  _136
REMARK   60  A    between atoms: _136  and  _137
REMARK   61  A    between atoms: _137  and  _138
REMARK   62  A    between atoms: _140  and  _142
REMARK   63  A    between atoms: _142  and  _143
REMARK   64  A    between atoms: _142  and  _145
REMARK   65  A    between atoms: _145  and  _146
REMARK   66  A    between atoms: _149  and  _151
REMARK   67  A    between atoms: _151  and  _152
REMARK   68  A    between atoms: _154  and  _156
REMARK   69  A    between atoms: _156  and  _157
REMARK   70  A    between atoms: _159  and  _161
REMARK   71  A    between atoms: _161  and  _162
REMARK   72  A    between atoms: _161  and  _164
REMARK   73  A    between atoms: _164  and  _165
REMARK   74  A    between atoms: _168  and  _170
REMARK   75  A    between atoms: _170  and  _171
REMARK   76  A    between atoms: _173  and  _175
REMARK   77  A    between atoms: _175  and  _176
REMARK   78  A    between atoms: _178  and  _180
REMARK   79  A    between atoms: _180  and  _181
REMARK   80  A    between atoms: _180  and  _183
REMARK   81  A    between atoms: _183  and  _184
REMARK   82  A    between atoms: _190  and  _192
REMARK   83  A    between atoms: _192  and  _193
REMARK   84  A    between atoms: _192  and  _195
REMARK   85  A    between atoms: _195  and  _196
REMARK   86  A    between atoms: _199  and  _201
REMARK   87  A    between atoms: _201  and  _202
REMARK   88  A    between atoms: _201  and  _204
REMARK   89  A    between atoms: _207  and  _209
REMARK   90  A    between atoms: _209  and  _210
REMARK   91  A    between atoms: _209  and  _212
REMARK   92  A    between atoms: _212  and  _213
REMARK   93  A    between atoms: _216  and  _218
REMARK   94  A    between atoms: _218  and  _219
REMARK   95  A    between atoms: _218  and  _221
REMARK   96  A    between atoms: _221  and  _222
REMARK   97  A    between atoms: _226  and  _227
REMARK   98  A    between atoms: _232  and  _234
REMARK   99  A    between atoms: _234  and  _235
REMARK  100  A    between atoms: _234  and  _237
REMARK  101  A    between atoms: _240  and  _242
REMARK  102  A    between atoms: _242  and  _243
REMARK  103  A    between atoms: _242  and  _245
REMARK  104  A    between atoms: _245  and  _246
REMARK  105  A    between atoms: _251  and  _253
REMARK  106  A    between atoms: _253  and  _254
REMARK  107  A    between atoms: _253  and  _256
REMARK  108  A    between atoms: _256  and  _257
REMARK  109  A    between atoms: _260  and  _262
REMARK  110  A    between atoms: _262  and  _263
REMARK  111  A    between atoms: _262  and  _265
REMARK  112  A    between atoms: _265  and  _266
REMARK  113  A    between atoms: _269  and  _271
REMARK  114  A    between atoms: _271  and  _272
REMARK  115  A    between atoms: _274  and  _276
REMARK  116  A    between atoms: _276  and  _277
REMARK  117  A    between atoms: _276  and  _279
REMARK  118  A    between atoms: _279  and  _280
REMARK  119  A    between atoms: _280  and  _281
REMARK  120  A    between atoms: _281  and  _282
REMARK  121  A    between atoms: _291  and  _293
REMARK  122  A    between atoms: _293  and  _294
REMARK  123  A    between atoms: _293  and  _296
REMARK  124  A    between atoms: _296  and  _297
REMARK  125  A    between atoms: _302  and  _304
REMARK  126  A    between atoms: _304  and  _305
REMARK  127  A    between atoms: _304  and  _307
REMARK  128  A    between atoms: _307  and  _308
REMARK  129  A    between atoms: _308  and  _309
REMARK  130  A    between atoms: _309  and  _310
REMARK  131  A    between atoms: _320  and  _321
REMARK  132  A    between atoms: _326  and  _328
REMARK  133  A    between atoms: _328  and  _329
REMARK  134  A    between atoms: _328  and  _331
REMARK  135  A    between atoms: _331  and  _332
REMARK  136  A    between atoms: _335  and  _337
REMARK  137  A    between atoms: _337  and  _338
REMARK  138  A    between atoms: _337  and  _340
REMARK  139  A    between atoms: _340  and  _341
REMARK  140  A    between atoms: _344  and  _346
REMARK  141  A    between atoms: _346  and  _347
REMARK  142  A    between atoms: _346  and  _349
REMARK  143  A    between atoms: _349  and  _350
REMARK  144  A    between atoms: _353  and  _355
REMARK  145  A    between atoms: _355  and  _356
REMARK  146  A    between atoms: _355  and  _358
REMARK  147  A    between atoms: _358  and  _359
REMARK  148  A    between atoms: _362  and  _364
REMARK  149  A    between atoms: _364  and  _365
REMARK  150  A    between atoms: _364  and  _367
REMARK  151  A    between atoms: _367  and  _368
REMARK  152  A    between atoms: _371  and  _373
REMARK  153  A    between atoms: _373  and  _374
REMARK  154  A    between atoms: _376  and  _378
REMARK  155  A    between atoms: _378  and  _379
REMARK  156  A    between atoms: _382  and  _384
REMARK  157  A    between atoms: _384  and  _385
REMARK  158  A    between atoms: _384  and  _387
REMARK  159  A    between atoms: _387  and  _388
REMARK  160  A    between atoms: _391  and  _393
REMARK  161  A    between atoms: _393  and  _394
REMARK  162  A    between atoms: _393  and  _396
REMARK  163  A    between atoms: _396  and  _397
REMARK  164  A    between atoms: _400  and  _402
REMARK  165  A    between atoms: _402  and  _403
REMARK  166  A    between atoms: _402  and  _405
REMARK  167  A    between atoms: _405  and  _406
REMARK  168  A    between atoms: _409  and  _411
REMARK  169  A    between atoms: _411  and  _412
REMARK  170  A    between atoms: _411  and  _414
REMARK  171  A    between atoms: _417  and  _419
REMARK  172  A    between atoms: _419  and  _420
REMARK  173  A    between atoms: _419  and  _422
REMARK  174  A    between atoms: _422  and  _423
REMARK  175  A    between atoms: _426  and  _428
REMARK  176  A    between atoms: _428  and  _429
REMARK  177  A    between atoms: _428  and  _431
REMARK  178  A    between atoms: _431  and  _432
REMARK  179  A    between atoms: _432  and  _433
REMARK  180  A    between atoms: _433  and  _434
REMARK  181  A    between atoms: _434  and  _435
REMARK  182  A    between atoms: _439  and  _441
REMARK  183  A    between atoms: _441  and  _442
REMARK  184  A    between atoms: _441  and  _444
REMARK  185  A    between atoms: _444  and  _445
REMARK  186  A    between atoms: _448  and  _450
REMARK  187  A    between atoms: _450  and  _451
REMARK  188  A    between atoms: _453  and  _455
REMARK  189  A    between atoms: _455  and  _456
REMARK  190  A    between atoms: _458  and  _460
REMARK  191  A    between atoms: _460  and  _461
REMARK  192  A    between atoms: _460  and  _463
REMARK  193  A    between atoms: _463  and  _464
REMARK  194  A    between atoms: _467  and  _469
REMARK  195  A    between atoms: _469  and  _470
REMARK  196  A    between atoms: _472  and  _474
REMARK  197  A    between atoms: _474  and  _475
REMARK  198  A    between atoms: _477  and  _479
REMARK  199  A    between atoms: _479  and  _480
REMARK  200  A    between atoms: _479  and  _482
REMARK  201  A    between atoms: _482  and  _483
REMARK  202  A    between atoms: _489  and  _491
REMARK  203  A    between atoms: _491  and  _492
REMARK  204  A    between atoms: _491  and  _494
REMARK  205  A    between atoms: _494  and  _495
REMARK  206  A    between atoms: _498  and  _500
REMARK  207  A    between atoms: _500  and  _501
REMARK  208  A    between atoms: _500  and  _503
REMARK  209  A    between atoms: _506  and  _508
REMARK  210  A    between atoms: _508  and  _509
REMARK  211  A    between atoms: _508  and  _511
REMARK  212  A    between atoms: _511  and  _512
REMARK  213  A    between atoms: _516  and  _517
REMARK  214  A    between atoms: _522  and  _524
REMARK  215  A    between atoms: _524  and  _525
REMARK  216  A    between atoms: _524  and  _527
REMARK  217  A    between atoms: _527  and  _528
REMARK  218  A    between atoms: _532  and  _533
REMARK  219  A    between atoms: _538  and  _540
REMARK  220  A    between atoms: _540  and  _541
REMARK  221  A    between atoms: _540  and  _543
REMARK  222  A    between atoms: _546  and  _548
REMARK  223  A    between atoms: _548  and  _549
REMARK  224  A    between atoms: _548  and  _551
REMARK  225  A    between atoms: _551  and  _552
REMARK  226  A    between atoms: _557  and  _559
REMARK  227  A    between atoms: _559  and  _560
REMARK  228  A    between atoms: _559  and  _562
REMARK  229  A    between atoms: _562  and  _563
REMARK  230  A    between atoms: _566  and  _568
REMARK  231  A    between atoms: _568  and  _569
REMARK  232  A    between atoms: _568  and  _571
REMARK  233  A    between atoms: _571  and  _572
REMARK  234  A    between atoms: _575  and  _577
REMARK  235  A    between atoms: _577  and  _578
REMARK  236  A    between atoms: _580  and  _582
REMARK  237  A    between atoms: _582  and  _583
REMARK  238  A    between atoms: _582  and  _585
REMARK  239  A    between atoms: _585  and  _586
REMARK  240  A    between atoms: _586  and  _587
REMARK  241  A    between atoms: _587  and  _588
REMARK                            x       y       z     vdW  Elec       q    Type
REMARK                         _______ _______ _______ _____ _____    ______ ____
ROOT
ATOM      1  CA  VAL A   1     -16.063  33.532   0.811  0.00  0.00    +0.133 C 
ENDROOT
BRANCH   1   2
ATOM      2  CB  VAL A   1     -15.692  32.031   0.900  0.00  0.00    +0.023 C 
ATOM      3  CG2 VAL A   1     -14.235  31.832   0.538  0.00  0.00    +0.002 C 
ATOM      4  CG1 VAL A   1     -16.578  31.223  -0.021  0.00  0.00    +0.002 C 
ENDBRANCH   1   2
BRANCH   1   5
ATOM      5  N   VAL A   1     -15.886  34.057  -0.536  0.00  0.00    -0.239 NA
ATOM      6  H   VAL A   1     -14.926  34.147  -0.925  0.00  0.00    +0.142 HD
ENDBRANCH   1   5
BRANCH   1   7
ATOM      7  C   VAL A   1     -15.178  34.312   1.772  0.00  0.00    +0.224 C 
ATOM      8  O   VAL A   1     -14.320  35.086   1.350  0.00  0.00    -0.287 OA
ENDBRANCH   1   7
TORSDOF 3
REMARK  Name = ../refined-set-2016/2qnq/2qnq_pocket.pdb
REMARK  241 active torsions:
REMARK  status: ('A' for Active; 'I' for Inactive)
REMARK    1  A    between atoms: _1  and  _3
REMARK    2  A    between atoms: _3  and  _4
REMARK    3  A    between atoms: _3  and  _6
REMARK    4  A    between atoms: _6  and  _7
REMARK    5  A    between atoms: _7  and  _8
REMARK    6  A    between atoms: _8  and  _9
REMARK    7  A    between atoms: _18  and  _20
REMARK    8  A    between atoms: _20  and  _21
REMARK    9  A    between atoms: _20  and  _23
REMARK   10  A    between atoms: _23  and  _24
REMARK   11  A    between atoms: _27  and  _29
REMARK   12  A    between atoms: _29  and  _30
REMARK   13  A    between atoms: _29  and  _32
REMARK   14  A    between atoms: _32  and  _33
REMARK   15  A    between atoms: _36  and  _38
REMARK   16  A    between atoms: _38  and  _39
REMARK   17  A    between atoms: _38  and  _41
REMARK   18  A    between atoms: _41  and  _42
REMARK   19  A    between atoms: _45  and  _47
REMARK   20  A    between atoms: _47  and  _48
REMARK   21  A    between atoms: _47  and  _50
REMARK   22  A    between atoms: _50  and  _51
REMARK   23  A    between atoms: _54  and  _56
REMARK   24  A    between atoms: _56  and  _57
REMARK   25  A    between atoms: _56  and  _59
REMARK   26  A    between atoms: _59  and  _60
REMARK   27  A    between atoms: _63  and  _65
REMARK   28  A    between atoms: _65  and  _66
REMARK   29  A    between atoms: _68  and  _70
REMARK   30  A    between atoms: _70  and  _71
REMARK   31  A    between atoms: _74  and  _76
REMARK   32  A    between atoms: _76  and  _77
REMARK   33  A    between atoms: _76  and  _79
REMARK   34  A    between atoms: _79  and  _80
REMARK   35  A    between atoms: _83  and  _85
REMARK   36  A    between atoms: _85  and  _86
REMARK   37  A    between atoms: _85  and  _88
REMARK   38  A    between atoms: _88  and  _89
REMARK   39  A    between atoms: _92  and  _94
REMARK   40  A    between atoms: _94  and  _95
REMARK   41  A    between atoms: _94  and  _97
REMARK   42  A    between atoms: _97  and  _98
REMARK   43  A    between atoms: _101  and  _103
REMARK   44  A    between atoms: _103  and  _104
REMARK   45  A    between atoms: _103  and  _106
REMARK   46  A    between atoms: _109  and  _111
REMARK   47  A    between atoms: _111  and  _112
REMARK   48  A    between atoms: _111  and  _114
REMARK   49  A    between atoms: _114  and  _115
REMARK   50  A    between atoms: _118  and  _120
REMARK   51  A    between atoms: _120  and  _121
REMARK   52  A    between atoms: _120  and  _123
REMARK   53  A    between atoms: _123  and  _124
REMARK   54  A    between atoms: _124  and  _125
REMARK   55  A    between atoms: _125  and  _126
REMARK   56  A    between atoms: _126  and  _127
REMARK   57  A    between atoms: _131  and  _133
REMARK   58  A    between atoms: _133  and  _134
REMARK   59  A    between atoms: _133  and  _136
REMARK   60  A    between atoms: _136  and  _137
REMARK   61  A    between atoms: _137  and  _138
REMARK   62  A    between atoms: _140  and  _142
REMARK   63  A    between atoms: _142  and  _143
REMARK   64  A    between atoms: _142  and  _145
REMARK   65  A    between atoms: _145  and  _146
REMARK   66  A    between atoms: _149  and  _151
REMARK   67  A    between atoms: _151  and  _152
REMARK   68  A    between atoms: _154  and  _156
REMARK   69  A    between atoms: _156  and  _157
REMARK   70  A    between atoms: _159  and  _161
REMARK   71  A    between atoms: _161  and  _162
REMARK   72  A    between atoms: _161  and  _164
REMARK   73  A    between atoms: _164  and  _165
REMARK   74  A    between atoms: _168  and  _170
REMARK   75  A    between atoms: _170  and  _171
REMARK   76  A    between atoms: _173  and  _175
REMARK   77  A    between atoms: _175  and  _176
REMARK   78  A    between atoms: _178  and  _180
REMARK   79  A    between atoms: _180  and  _181
REMARK   80  A    between atoms: _180  and  _183
REMARK   81  A    between atoms: _183  and  _184
REMARK   82  A    between atoms: _190  and  _192
REMARK   83  A    between atoms: _192  and  _193
REMARK   84  A    between atoms: _192  and  _195
REMARK   85  A    between atoms: _195  and  _196
REMARK   86  A    between atoms: _199  and  _201
REMARK   87  A    between atoms: _201  and  _202
REMARK   88  A    between atoms: _201  and  _204
REMARK   89  A    between atoms: _207  and  _209
REMARK   90  A    between atoms: _209  and  _210
REMARK   91  A    between atoms: _209  and  _212
REMARK   92  A    between atoms: _212  and  _213
REMARK   93  A    between atoms: _216  and  _218
REMARK   94  A    between atoms: _218  and  _219
REMARK   95  A    between atoms: _218  and  _221
REMARK   96  A    between atoms: _221  and  _222
REMARK   97  A    between atoms: _226  and  _227
REMARK   98  A    between atoms: _232  and  _234
REMARK   99  A    between atoms: _234  and  _235
REMARK  100  A    between atoms: _234  and  _237
REMARK  101  A    between atoms: _240  and  _242
REMARK  102  A    between atoms: _242  and  _243
REMARK  103  A    between atoms: _242  and  _245
REMARK  104  A    between atoms: _245  and  _246
REMARK  105  A    between atoms: _251  and  _253
REMARK  106  A    between atoms: _253  and  _254
REMARK  107  A    between atoms: _253  and  _256
REMARK  108  A    between atoms: _256  and  _257
REMARK  109  A    between atoms: _260  and  _262
REMARK  110  A    between atoms: _262  and  _263
REMARK  111  A    between atoms: _262  and  _265
REMARK  112  A    between atoms: _265  and  _266
REMARK  113  A    between atoms: _269  and  _271
REMARK  114  A    between atoms: _271  and  _272
REMARK  115  A    between atoms: _274  and  _276
REMARK  116  A    between atoms: _276  and  _277
REMARK  117  A    between atoms: _276  and  _279
REMARK  118  A    between atoms: _279  and  _280
REMARK  119  A    between atoms: _280  and  _281
REMARK  120  A    between atoms: _281  and  _282
REMARK  121  A    between atoms: _291  and  _293
REMARK  122  A    between atoms: _293  and  _294
REMARK  123  A    between atoms: _293  and  _296
REMARK  124  A    between atoms: _296  and  _297
REMARK  125  A    between atoms: _302  and  _304
REMARK  126  A    between atoms: _304  and  _305
REMARK  127  A    between atoms: _304  and  _307
REMARK  128  A    between atoms: _307  and  _308
REMARK  129  A    between atoms: _308  and  _309
REMARK  130  A    between atoms: _309  and  _310
REMARK  131  A    between atoms: _320  and  _321
REMARK  132  A    between atoms: _326  and  _328
REMARK  133  A    between atoms: _328  and  _329
REMARK  134  A    between atoms: _328  and  _331
REMARK  135  A    between atoms: _331  and  _332
REMARK  136  A    between atoms: _335  and  _337
REMARK  137  A    between atoms: _337  and  _338
REMARK  138  A    between atoms: _337  and  _340
REMARK  139  A    between atoms: _340  and  _341
REMARK  140  A    between atoms: _344  and  _346
REMARK  141  A    between atoms: _346  and  _347
REMARK  142  A    between atoms: _346  and  _349
REMARK  143  A    between atoms: _349  and  _350
REMARK  144  A    between atoms: _353  and  _355
REMARK  145  A    between atoms: _355  and  _356
REMARK  146  A    between atoms: _355  and  _358
REMARK  147  A    between atoms: _358  and  _359
REMARK  148  A    between atoms: _362  and  _364
REMARK  149  A    between atoms: _364  and  _365
REMARK  150  A    between atoms: _364  and  _367
REMARK  151  A    between atoms: _367  and  _368
REMARK  152  A    between atoms: _371  and  _373
REMARK  153  A    between atoms: _373  and  _374
REMARK  154  A    between atoms: _376  and  _378
REMARK  155  A    between atoms: _378  and  _379
REMARK  156  A    between atoms: _382  and  _384
REMARK  157  A    between atoms: _384  and  _385
REMARK  158  A    between atoms: _384  and  _387
REMARK  159  A    between atoms: _387  and  _388
REMARK  160  A    between atoms: _391  and  _393
REMARK  161  A    between atoms: _393  and  _394
REMARK  162  A    between atoms: _393  and  _396
REMARK  163  A    between atoms: _396  and  _397
REMARK  164  A    between atoms: _400  and  _402
REMARK  165  A    between atoms: _402  and  _403
REMARK  166  A    between atoms: _402  and  _405
REMARK  167  A    between atoms: _405  and  _406
REMARK  168  A    between atoms: _409  and  _411
REMARK  169  A    between atoms: _411  and  _412
REMARK  170  A    between atoms: _411  and  _414
REMARK  171  A    between atoms: _417  and  _419
REMARK  172  A    between atoms: _419  and  _420
REMARK  173  A    between atoms: _419  and  _422
REMARK  174  A    between atoms: _422  and  _423
REMARK  175  A    between atoms: _426  and  _428
REMARK  176  A    between atoms: _428  and  _429
REMARK  177  A    between atoms: _428  and  _431
REMARK  178  A    between atoms: _431  and  _432
REMARK  179  A    between atoms: _432  and  _433
REMARK  180  A    between atoms: _433  and  _434
REMARK  181  A    between atoms: _434  and  _435
REMARK  182  A    between atoms: _439  and  _441
REMARK  183  A    between atoms: _441  and  _442
REMARK  184  A    between atoms: _441  and  _444
REMARK  185  A    between atoms: _444  and  _445
REMARK  186  A    between atoms: _448  and  _450
REMARK  187  A    between atoms: _450  and  _451
REMARK  188  A    between atoms: _453  and  _455
REMARK  189  A    between atoms: _455  and  _456
REMARK  190  A    between atoms: _458  and  _460
REMARK  191  A    between atoms: _460  and  _461
REMARK  192  A    between atoms: _460  and  _463
REMARK  193  A    between atoms: _463  and  _464
REMARK  194  A    between atoms: _467  and  _469
REMARK  195  A    between atoms: _469  and  _470
REMARK  196  A    between atoms: _472  and  _474
REMARK  197  A    between atoms: _474  and  _475
REMARK  198  A    between atoms: _477  and  _479
REMARK  199  A    between atoms: _479  and  _480
REMARK  200  A    between atoms: _479  and  _482
REMARK  201  A    between atoms: _482  and  _483
REMARK  202  A    between atoms: _489  and  _491
REMARK  203  A    between atoms: _491  and  _492
REMARK  204  A    between atoms: _491  and  _494
REMARK  205  A    between atoms: _494  and  _495
REMARK  206  A    between atoms: _498  and  _500
REMARK  207  A    between atoms: _500  and  _501
REMARK  208  A    between atoms: _500  and  _503
REMARK  209  A    between atoms: _506  and  _508
REMARK  210  A    between atoms: _508  and  _509
REMARK  211  A    between atoms: _508  and  _511
REMARK  212  A    between atoms: _511  and  _512
REMARK  213  A    between atoms: _516  and  _517
REMARK  214  A    between atoms: _522  and  _524
REMARK  215  A    between atoms: _524  and  _525
REMARK  216  A    between atoms: _524  and  _527
REMARK  217  A    between atoms: _527  and  _528
REMARK  218  A    between atoms: _532  and  _533
REMARK  219  A    between atoms: _538  and  _540
REMARK  220  A    between atoms: _540  and  _541
REMARK  221  A    between atoms: _540  and  _543
REMARK  222  A    between atoms: _546  and  _548
REMARK  223  A    between atoms: _548  and  _549
REMARK  224  A    between atoms: _548  and  _551
REMARK  225  A    between atoms: _551  and  _552
REMARK  226  A    between atoms: _557  and  _559
REMARK  227  A    between atoms: _559  and  _560
REMARK  228  A    between atoms: _559  and  _562
REMARK  229  A    between atoms: _562  and  _563
REMARK  230  A    between atoms: _566  and  _568
REMARK  231  A    between atoms: _568  and  _569
REMARK  232  A    between atoms: _568  and  _571
REMARK  233  A    between atoms: _571  and  _572
REMARK  234  A    between atoms: _575  and  _577
REMARK  235  A    between atoms: _577  and  _578
REMARK  236  A    between atoms: _580  and  _582
REMARK  237  A    between atoms: _582  and  _583
REMARK  238  A    between atoms: _582  and  _585
REMARK  239  A    between atoms: _585  and  _586
REMARK  240  A    between atoms: _586  and  _587
REMARK  241  A    between atoms: _587  and  _588
REMARK                            x       y       z     vdW  Elec       q    Type
REMARK                         _______ _______ _______ _____ _____    ______ ____
ROOT
ATOM      1  CA  LEU A   1     -13.059  29.514   4.682  0.00  0.00    +0.133 C 
ENDROOT
BRANCH   1   2
ATOM      2  N   LEU A   1     -12.245  28.607   5.473  0.00  0.00    -0.239 NA
ATOM      3  H   LEU A   1     -12.166  27.609   5.192  0.00  0.00    +0.142 HD
ENDBRANCH   1   2
BRANCH   1   4
ATOM      4  C   LEU A   1     -14.522  29.314   5.085  0.00  0.00    +0.224 C 
ATOM      5  O   LEU A   1     -14.947  28.198   5.399  0.00  0.00    -0.287 OA
ENDBRANCH   1   4
BRANCH   1   6
ATOM      6  CB  LEU A   1     -12.873  29.234   3.187  0.00  0.00    +0.025 C 
BRANCH   6   7
ATOM      7  CG  LEU A   1     -11.428  29.209   2.668  0.00  0.00    +0.002 C 
ATOM      8  CD2 LEU A   1     -10.689  30.479   3.084  0.00  0.00    +0.000 C 
ATOM      9  CD1 LEU A   1     -11.445  29.083   1.144  0.00  0.00    +0.000 C 
ENDBRANCH   6   7
ENDBRANCH   1   6
TORSDOF 4
REMARK  Name = ../refined-set-2016/2qnq/2qnq_pocket.pdb
REMARK  241 active torsions:
REMARK  status: ('A' for Active; 'I' for Inactive)
REMARK    1  A    between atoms: _1  and  _3
REMARK    2  A    between atoms: _3  and  _4
REMARK    3  A    between atoms: _3  and  _6
REMARK    4  A    between atoms: _6  and  _7
REMARK    5  A    between atoms: _7  and  _8
REMARK    6  A    between atoms: _8  and  _9
REMARK    7  A    between atoms: _18  and  _20
REMARK    8  A    between atoms: _20  and  _21
REMARK    9  A    between atoms: _20  and  _23
REMARK   10  A    between atoms: _23  and  _24
REMARK   11  A    between atoms: _27  and  _29
REMARK   12  A    between atoms: _29  and  _30
REMARK   13  A    between atoms: _29  and  _32
REMARK   14  A    between atoms: _32  and  _33
REMARK   15  A    between atoms: _36  and  _38
REMARK   16  A    between atoms: _38  and  _39
REMARK   17  A    between atoms: _38  and  _41
REMARK   18  A    between atoms: _41  and  _42
REMARK   19  A    between atoms: _45  and  _47
REMARK   20  A    between atoms: _47  and  _48
REMARK   21  A    between atoms: _47  and  _50
REMARK   22  A    between atoms: _50  and  _51
REMARK   23  A    between atoms: _54  and  _56
REMARK   24  A    between atoms: _56  and  _57
REMARK   25  A    between atoms: _56  and  _59
REMARK   26  A    between atoms: _59  and  _60
REMARK   27  A    between atoms: _63  and  _65
REMARK   28  A    between atoms: _65  and  _66
REMARK   29  A    between atoms: _68  and  _70
REMARK   30  A    between atoms: _70  and  _71
REMARK   31  A    between atoms: _74  and  _76
REMARK   32  A    between atoms: _76  and  _77
REMARK   33  A    between atoms: _76  and  _79
REMARK   34  A    between atoms: _79  and  _80
REMARK   35  A    between atoms: _83  and  _85
REMARK   36  A    between atoms: _85  and  _86
REMARK   37  A    between atoms: _85  and  _88
REMARK   38  A    between atoms: _88  and  _89
REMARK   39  A    between atoms: _92  and  _94
REMARK   40  A    between atoms: _94  and  _95
REMARK   41  A    between atoms: _94  and  _97
REMARK   42  A    between atoms: _97  and  _98
REMARK   43  A    between atoms: _101  and  _103
REMARK   44  A    between atoms: _103  and  _104
REMARK   45  A    between atoms: _103  and  _106
REMARK   46  A    between atoms: _109  and  _111
REMARK   47  A    between atoms: _111  and  _112
REMARK   48  A    between atoms: _111  and  _114
REMARK   49  A    between atoms: _114  and  _115
REMARK   50  A    between atoms: _118  and  _120
REMARK   51  A    between atoms: _120  and  _121
REMARK   52  A    between atoms: _120  and  _123
REMARK   53  A    between atoms: _123  and  _124
REMARK   54  A    between atoms: _124  and  _125
REMARK   55  A    between atoms: _125  and  _126
REMARK   56  A    between atoms: _126  and  _127
REMARK   57  A    between atoms: _131  and  _133
REMARK   58  A    between atoms: _133  and  _134
REMARK   59  A    between atoms: _133  and  _136
REMARK   60  A    between atoms: _136  and  _137
REMARK   61  A    between atoms: _137  and  _138
REMARK   62  A    between atoms: _140  and  _142
REMARK   63  A    between atoms: _142  and  _143
REMARK   64  A    between atoms: _142  and  _145
REMARK   65  A    between atoms: _145  and  _146
REMARK   66  A    between atoms: _149  and  _151
REMARK   67  A    between atoms: _151  and  _152
REMARK   68  A    between atoms: _154  and  _156
REMARK   69  A    between atoms: _156  and  _157
REMARK   70  A    between atoms: _159  and  _161
REMARK   71  A    between atoms: _161  and  _162
REMARK   72  A    between atoms: _161  and  _164
REMARK   73  A    between atoms: _164  and  _165
REMARK   74  A    between atoms: _168  and  _170
REMARK   75  A    between atoms: _170  and  _171
REMARK   76  A    between atoms: _173  and  _175
REMARK   77  A    between atoms: _175  and  _176
REMARK   78  A    between atoms: _178  and  _180
REMARK   79  A    between atoms: _180  and  _181
REMARK   80  A    between atoms: _180  and  _183
REMARK   81  A    between atoms: _183  and  _184
REMARK   82  A    between atoms: _190  and  _192
REMARK   83  A    between atoms: _192  and  _193
REMARK   84  A    between atoms: _192  and  _195
REMARK   85  A    between atoms: _195  and  _196
REMARK   86  A    between atoms: _199  and  _201
REMARK   87  A    between atoms: _201  and  _202
REMARK   88  A    between atoms: _201  and  _204
REMARK   89  A    between atoms: _207  and  _209
REMARK   90  A    between atoms: _209  and  _210
REMARK   91  A    between atoms: _209  and  _212
REMARK   92  A    between atoms: _212  and  _213
REMARK   93  A    between atoms: _216  and  _218
REMARK   94  A    between atoms: _218  and  _219
REMARK   95  A    between atoms: _218  and  _221
REMARK   96  A    between atoms: _221  and  _222
REMARK   97  A    between atoms: _226  and  _227
REMARK   98  A    between atoms: _232  and  _234
REMARK   99  A    between atoms: _234  and  _235
REMARK  100  A    between atoms: _234  and  _237
REMARK  101  A    between atoms: _240  and  _242
REMARK  102  A    between atoms: _242  and  _243
REMARK  103  A    between atoms: _242  and  _245
REMARK  104  A    between atoms: _245  and  _246
REMARK  105  A    between atoms: _251  and  _253
REMARK  106  A    between atoms: _253  and  _254
REMARK  107  A    between atoms: _253  and  _256
REMARK  108  A    between atoms: _256  and  _257
REMARK  109  A    between atoms: _260  and  _262
REMARK  110  A    between atoms: _262  and  _263
REMARK  111  A    between atoms: _262  and  _265
REMARK  112  A    between atoms: _265  and  _266
REMARK  113  A    between atoms: _269  and  _271
REMARK  114  A    between atoms: _271  and  _272
REMARK  115  A    between atoms: _274  and  _276
REMARK  116  A    between atoms: _276  and  _277
REMARK  117  A    between atoms: _276  and  _279
REMARK  118  A    between atoms: _279  and  _280
REMARK  119  A    between atoms: _280  and  _281
REMARK  120  A    between atoms: _281  and  _282
REMARK  121  A    between atoms: _291  and  _293
REMARK  122  A    between atoms: _293  and  _294
REMARK  123  A    between atoms: _293  and  _296
REMARK  124  A    between atoms: _296  and  _297
REMARK  125  A    between atoms: _302  and  _304
REMARK  126  A    between atoms: _304  and  _305
REMARK  127  A    between atoms: _304  and  _307
REMARK  128  A    between atoms: _307  and  _308
REMARK  129  A    between atoms: _308  and  _309
REMARK  130  A    between atoms: _309  and  _310
REMARK  131  A    between atoms: _320  and  _321
REMARK  132  A    between atoms: _326  and  _328
REMARK  133  A    between atoms: _328  and  _329
REMARK  134  A    between atoms: _328  and  _331
REMARK  135  A    between atoms: _331  and  _332
REMARK  136  A    between atoms: _335  and  _337
REMARK  137  A    between atoms: _337  and  _338
REMARK  138  A    between atoms: _337  and  _340
REMARK  139  A    between atoms: _340  and  _341
REMARK  140  A    between atoms: _344  and  _346
REMARK  141  A    between atoms: _346  and  _347
REMARK  142  A    between atoms: _346  and  _349
REMARK  143  A    between atoms: _349  and  _350
REMARK  144  A    between atoms: _353  and  _355
REMARK  145  A    between atoms: _355  and  _356
REMARK  146  A    between atoms: _355  and  _358
REMARK  147  A    between atoms: _358  and  _359
REMARK  148  A    between atoms: _362  and  _364
REMARK  149  A    between atoms: _364  and  _365
REMARK  150  A    between atoms: _364  and  _367
REMARK  151  A    between atoms: _367  and  _368
REMARK  152  A    between atoms: _371  and  _373
REMARK  153  A    between atoms: _373  and  _374
REMARK  154  A    between atoms: _376  and  _378
REMARK  155  A    between atoms: _378  and  _379
REMARK  156  A    between atoms: _382  and  _384
REMARK  157  A    between atoms: _384  and  _385
REMARK  158  A    between atoms: _384  and  _387
REMARK  159  A    between atoms: _387  and  _388
REMARK  160  A    between atoms: _391  and  _393
REMARK  161  A    between atoms: _393  and  _394
REMARK  162  A    between atoms: _393  and  _396
REMARK  163  A    between atoms: _396  and  _397
REMARK  164  A    between atoms: _400  and  _402
REMARK  165  A    between atoms: _402  and  _403
REMARK  166  A    between atoms: _402  and  _405
REMARK  167  A    between atoms: _405  and  _406
REMARK  168  A    between atoms: _409  and  _411
REMARK  169  A    between atoms: _411  and  _412
REMARK  170  A    between atoms: _411  and  _414
REMARK  171  A    between atoms: _417  and  _419
REMARK  172  A    between atoms: _419  and  _420
REMARK  173  A    between atoms: _419  and  _422
REMARK  174  A    between atoms: _422  and  _423
REMARK  175  A    between atoms: _426  and  _428
REMARK  176  A    between atoms: _428  and  _429
REMARK  177  A    between atoms: _428  and  _431
REMARK  178  A    between atoms: _431  and  _432
REMARK  179  A    between atoms: _432  and  _433
REMARK  180  A    between atoms: _433  and  _434
REMARK  181  A    between atoms: _434  and  _435
REMARK  182  A    between atoms: _439  and  _441
REMARK  183  A    between atoms: _441  and  _442
REMARK  184  A    between atoms: _441  and  _444
REMARK  185  A    between atoms: _444  and  _445
REMARK  186  A    between atoms: _448  and  _450
REMARK  187  A    between atoms: _450  and  _451
REMARK  188  A    between atoms: _453  and  _455
REMARK  189  A    between atoms: _455  and  _456
REMARK  190  A    between atoms: _458  and  _460
REMARK  191  A    between atoms: _460  and  _461
REMARK  192  A    between atoms: _460  and  _463
REMARK  193  A    between atoms: _463  and  _464
REMARK  194  A    between atoms: _467  and  _469
REMARK  195  A    between atoms: _469  and  _470
REMARK  196  A    between atoms: _472  and  _474
REMARK  197  A    between atoms: _474  and  _475
REMARK  198  A    between atoms: _477  and  _479
REMARK  199  A    between atoms: _479  and  _480
REMARK  200  A    between atoms: _479  and  _482
REMARK  201  A    between atoms: _482  and  _483
REMARK  202  A    between atoms: _489  and  _491
REMARK  203  A    between atoms: _491  and  _492
REMARK  204  A    between atoms: _491  and  _494
REMARK  205  A    between atoms: _494  and  _495
REMARK  206  A    between atoms: _498  and  _500
REMARK  207  A    between atoms: _500  and  _501
REMARK  208  A    between atoms: _500  and  _503
REMARK  209  A    between atoms: _506  and  _508
REMARK  210  A    between atoms: _508  and  _509
REMARK  211  A    between atoms: _508  and  _511
REMARK  212  A    between atoms: _511  and  _512
REMARK  213  A    between atoms: _516  and  _517
REMARK  214  A    between atoms: _522  and  _524
REMARK  215  A    between atoms: _524  and  _525
REMARK  216  A    between atoms: _524  and  _527
REMARK  217  A    between atoms: _527  and  _528
REMARK  218  A    between atoms: _532  and  _533
REMARK  219  A    between atoms: _538  and  _540
REMARK  220  A    between atoms: _540  and  _541
REMARK  221  A    between atoms: _540  and  _543
REMARK  222  A    between atoms: _546  and  _548
REMARK  223  A    between atoms: _548  and  _549
REMARK  224  A    between atoms: _548  and  _551
REMARK  225  A    between atoms: _551  and  _552
REMARK  226  A    between atoms: _557  and  _559
REMARK  227  A    between atoms: _559  and  _560
REMARK  228  A    between atoms: _559  and  _562
REMARK  229  A    between atoms: _562  and  _563
REMARK  230  A    between atoms: _566  and  _568
REMARK  231  A    between atoms: _568  and  _569
REMARK  232  A    between atoms: _568  and  _571
REMARK  233  A    between atoms: _571  and  _572
REMARK  234  A    between atoms: _575  and  _577
REMARK  235  A    between atoms: _577  and  _578
REMARK  236  A    between atoms: _580  and  _582
REMARK  237  A    between atoms: _582  and  _583
REMARK  238  A    between atoms: _582  and  _585
REMARK  239  A    between atoms: _585  and  _586
REMARK  240  A    between atoms: _586  and  _587
REMARK  241  A    between atoms: _587  and  _588
REMARK                            x       y       z     vdW  Elec       q    Type
REMARK                         _______ _______ _______ _____ _____    ______ ____
ROOT
ATOM      1  C   ASN A   5     -17.764  20.555   4.680  0.00  0.00    +0.241 C 
ATOM      2  O   ASN A   5     -17.913  19.347   4.528  0.00  0.00    -0.273 OA
ATOM      3  N   ILE A   6     -16.688  21.206   4.255  0.00  0.00    -0.297 N 
ATOM      4  H   ILE A   6     -16.609  22.228   4.431  0.00  0.00    +0.150 HD
ENDROOT
BRANCH   1   5
ATOM      5  CA  ASN A   5     -18.835  21.382   5.380  0.00  0.00    +0.158 C 
BRANCH   5   7
ATOM      6  C   VAL A   4     -20.346  21.234   3.484  0.00  0.00    +0.241 C 
ATOM      7  N   ASN A   5     -20.112  20.994   4.774  0.00  0.00    -0.297 N 
ATOM      8  H   ASN A   5     -20.839  20.529   5.354  0.00  0.00    +0.150 HD
ATOM      9  O   VAL A   4     -19.540  21.835   2.767  0.00  0.00    -0.273 OA
BRANCH   6  10
ATOM     10  CA  VAL A   4     -21.687  20.772   2.905  0.00  0.00    +0.149 C 
BRANCH  10  12
ATOM     11  C   PRO A   3     -23.171  21.643   1.157  0.00  0.00    +0.241 C 
ATOM     12  N   VAL A   4     -21.963  21.571   1.709  0.00  0.00    -0.297 N 
ATOM     13  H   VAL A   4     -21.183  22.104   1.274  0.00  0.00    +0.150 HD
ATOM     14  O   PRO A   3     -24.150  21.043   1.601  0.00  0.00    -0.273 OA
BRANCH  11  18
ATOM     15  C   THR A   2     -22.099  24.464   0.861  0.00  0.00    +0.246 C 
ATOM     16  O   THR A   2     -22.863  24.495   1.829  0.00  0.00    -0.273 OA
ATOM     17  N   PRO A   3     -22.232  23.554  -0.117  0.00  0.00    -0.272 N 
ATOM     18  CA  PRO A   3     -23.289  22.539  -0.071  0.00  0.00    +0.152 C 
ATOM     19  CB  PRO A   3     -23.102  21.782  -1.387  0.00  0.00    +0.031 C 
ATOM     20  CG  PRO A   3     -21.648  21.959  -1.681  0.00  0.00    +0.024 C 
ATOM     21  CD  PRO A   3     -21.407  23.401  -1.326  0.00  0.00    +0.094 C 
BRANCH  15  22
ATOM     22  CA  THR A   2     -20.967  25.478   0.721  0.00  0.00    +0.176 C 
BRANCH  22  24
ATOM     23  C   PRO A   1     -22.021  27.636   0.467  0.00  0.00    +0.239 C 
ATOM     24  N   THR A   2     -21.392  26.764   1.240  0.00  0.00    -0.295 N 
ATOM     25  H   THR A   2     -21.200  27.005   2.233  0.00  0.00    +0.150 HD
ATOM     26  O   PRO A   1     -22.289  27.405  -0.710  0.00  0.00    -0.274 OA
BRANCH  23  28
ATOM     27  N   PRO A   1     -21.306  29.840   1.467  0.00  0.00    -0.210 NA
ATOM     28  CA  PRO A   1     -22.421  28.949   1.127  0.00  0.00    +0.149 C 
ATOM     29  CB  PRO A   1     -23.293  29.823   0.226  0.00  0.00    +0.028 C 
ATOM     30  CG  PRO A   1     -22.280  30.660  -0.489  0.00  0.00    +0.021 C 
ATOM     31  CD  PRO A   1     -21.327  31.052   0.628  0.00  0.00    +0.089 C 
ENDBRANCH  23  28
ENDBRANCH  22  24
BRANCH  22  32
ATOM     32  CB  THR A   2     -19.710  24.976   1.474  0.00  0.00    +0.137 C 
ATOM     33  CG2 THR A   2     -20.001  24.819   2.970  0.00  0.00    +0.034 C 
BRANCH  32  34
ATOM     34  OG1 THR A   2     -19.291  23.720   0.925  0.00  0.00    -0.382 OA
ATOM     35  HG1 THR A   2     -20.021  23.058   1.024  0.00  0.00    +0.210 HD
ENDBRANCH  32  34
ENDBRANCH  22  32
ENDBRANCH  15  22
ENDBRANCH  11  18
ENDBRANCH  10  12
BRANCH  10  36
ATOM     36  CB  VAL A   4     -21.625  19.252   2.563  0.00  0.00    +0.027 C 
ATOM     37  CG2 VAL A   4     -21.474  18.432   3.841  0.00  0.00    +0.002 C 
ATOM     38  CG1 VAL A   4     -20.465  18.962   1.600  0.00  0.00    +0.002 C 
ENDBRANCH  10  36
ENDBRANCH   6  10
ENDBRANCH   5   7
BRANCH   5  39
ATOM     39  CB  ASN A   5     -18.808  21.076   6.882  0.00  0.00    +0.114 C 
BRANCH  39  40
ATOM     40  CG  ASN A   5     -19.716  21.989   7.691  0.00  0.00    +0.222 C 
ATOM     41  ND2 ASN A   5     -20.423  21.417   8.654  0.00  0.00    -0.329 N 
ATOM     42 HD21 ASN A   5     -21.046  21.994   9.255  0.00  0.00    +0.145 HD
ATOM     43 HD22 ASN A   5     -20.355  20.391   8.810  0.00  0.00    +0.145 HD
ATOM     44  OD1 ASN A   5     -19.761  23.196   7.467  0.00  0.00    -0.275 OA
ENDBRANCH  39  40
ENDBRANCH   5  39
ENDBRANCH   1   5
BRANCH   3  45
ATOM     45  CA  ILE A   6     -15.616  20.520   3.547  0.00  0.00    +0.149 C 
BRANCH  45  46
ATOM     46  C   ILE A   6     -14.207  20.730   4.094  0.00  0.00    +0.241 C 
ATOM     47  N   ILE A   7     -13.535  19.618   4.366  0.00  0.00    -0.297 N 
ATOM     48  H   ILE A   7     -13.999  18.698   4.225  0.00  0.00    +0.150 HD
ATOM     49  O   ILE A   6     -13.743  21.861   4.266  0.00  0.00    -0.273 OA
BRANCH  47  50
ATOM     50  CA  ILE A   7     -12.173  19.653   4.853  0.00  0.00    +0.149 C 
BRANCH  50  51
ATOM     51  C   ILE A   7     -11.335  19.435   3.601  0.00  0.00    +0.241 C 
ATOM     52  N   GLY A   8     -10.629  20.476   3.168  0.00  0.00    -0.295 N 
ATOM     53  H   GLY A   8     -10.661  21.374   3.692  0.00  0.00    +0.150 HD
ATOM     54  O   ILE A   7     -11.351  18.347   3.026  0.00  0.00    -0.273 OA
BRANCH  52  55
ATOM     55  CA  GLY A   8      -9.813  20.371   1.970  0.00  0.00    +0.176 C 
BRANCH  55  56
ATOM     56  C   GLY A   8      -8.375  19.947   2.212  0.00  0.00    +0.243 C 
ATOM     57  O   GLY A   8      -7.983  19.643   3.348  0.00  0.00    -0.273 OA
ATOM     58  N   ARG A   9      -7.580  19.942   1.144  0.00  0.00    -0.298 N 
ATOM     59  H   ARG A   9      -7.962  20.234   0.222  0.00  0.00    +0.150 HD
BRANCH  58  60
ATOM     60  CA  ARG A   9      -6.182  19.534   1.242  0.00  0.00    +0.137 C 
BRANCH  60  61
ATOM     61  C   ARG A   9      -5.358  20.304   2.270  0.00  0.00    +0.227 C 
ATOM     62  O   ARG A   9      -4.517  19.714   2.941  0.00  0.00    -0.286 OA
ENDBRANCH  60  61
BRANCH  60  63
ATOM     63  CB  ARG A   9      -5.497  19.610  -0.135  0.00  0.00    +0.031 C 
BRANCH  63  64
ATOM     64  CG  ARG A   9      -6.000  18.556  -1.117  0.00  0.00    +0.045 C 
BRANCH  64  65
ATOM     65  CD  ARG A   9      -5.179  18.487  -2.409  0.00  0.00    +0.174 C 
BRANCH  65  66
ATOM     66  NE  ARG A   9      -5.151  19.768  -3.109  0.00  0.00    -0.265 N 
ATOM     67  CZ  ARG A   9      -4.143  20.630  -3.039  0.00  0.00    +0.342 C 
ATOM     68  NH2 ARG A   9      -3.075  20.339  -2.307  0.00  0.00    -0.292 N 
ATOM     69 HH21 ARG A   9      -3.029  19.438  -1.790  0.00  0.00    +0.255 HD
ATOM     70 HH22 ARG A   9      -2.284  21.012  -2.250  0.00  0.00    +0.255 HD
ATOM     71  NH1 ARG A   9      -4.212  21.792  -3.682  0.00  0.00    -0.292 N 
ATOM     72 HH11 ARG A   9      -3.421  22.465  -3.626  0.00  0.00    +0.255 HD
ATOM     73 HH12 ARG A   9      -5.057  22.027  -4.241  0.00  0.00    +0.255 HD
ATOM     74  HE  ARG A   9      -5.970  20.021  -3.698  0.00  0.00    +0.259 HD
ENDBRANCH  65  66
ENDBRANCH  64  65
ENDBRANCH  63  64
ENDBRANCH  60  63
ENDBRANCH  58  60
ENDBRANCH  55  56
ENDBRANCH  52  55
ENDBRANCH  50  51
BRANCH  50  75
ATOM     75  CB  ILE A   7     -11.909  18.512   5.856  0.00  0.00    +0.027 C 
ATOM     76  CG2 ILE A   7     -10.499  18.627   6.416  0.00  0.00    +0.002 C 
BRANCH  75  77
ATOM     77  CG1 ILE A   7     -12.963  18.546   6.975  0.00  0.00    +0.002 C 
ATOM     78  CD1 ILE A   7     -13.089  19.891   7.705  0.00  0.00    +0.000 C 
ENDBRANCH  75  77
ENDBRANCH  50  75
ENDBRANCH  47  50
ENDBRANCH  45  46
BRANCH  45  79
ATOM     79  CB  ILE A   6     -15.639  20.906   2.052  0.00  0.00    +0.027 C 
ATOM     80  CG2 ILE A   6     -14.301  20.587   1.385  0.00  0.00    +0.002 C 
BRANCH  79  81
ATOM     81  CG1 ILE A   6     -16.773  20.151   1.370  0.00  0.00    +0.002 C 
ATOM     82  CD1 ILE A   6     -17.162  20.727   0.080  0.00  0.00    +0.000 C 
ENDBRANCH  79  81
ENDBRANCH  45  79
ENDBRANCH   3  45
TORSDOF 29
REMARK  Name = ../refined-set-2016/2qnq/2qnq_pocket.pdb
REMARK  241 active torsions:
REMARK  status: ('A' for Active; 'I' for Inactive)
REMARK    1  A    between atoms: _1  and  _3
REMARK    2  A    between atoms: _3  and  _4
REMARK    3  A    between atoms: _3  and  _6
REMARK    4  A    between atoms: _6  and  _7
REMARK    5  A    between atoms: _7  and  _8
REMARK    6  A    between atoms: _8  and  _9
REMARK    7  A    between atoms: _18  and  _20
REMARK    8  A    between atoms: _20  and  _21
REMARK    9  A    between atoms: _20  and  _23
REMARK   10  A    between atoms: _23  and  _24
REMARK   11  A    between atoms: _27  and  _29
REMARK   12  A    between atoms: _29  and  _30
REMARK   13  A    between atoms: _29  and  _32
REMARK   14  A    between atoms: _32  and  _33
REMARK   15  A    between atoms: _36  and  _38
REMARK   16  A    between atoms: _38  and  _39
REMARK   17  A    between atoms: _38  and  _41
REMARK   18  A    between atoms: _41  and  _42
REMARK   19  A    between atoms: _45  and  _47
REMARK   20  A    between atoms: _47  and  _48
REMARK   21  A    between atoms: _47  and  _50
REMARK   22  A    between atoms: _50  and  _51
REMARK   23  A    between atoms: _54  and  _56
REMARK   24  A    between atoms: _56  and  _57
REMARK   25  A    between atoms: _56  and  _59
REMARK   26  A    between atoms: _59  and  _60
REMARK   27  A    between atoms: _63  and  _65
REMARK   28  A    between atoms: _65  and  _66
REMARK   29  A    between atoms: _68  and  _70
REMARK   30  A    between atoms: _70  and  _71
REMARK   31  A    between atoms: _74  and  _76
REMARK   32  A    between atoms: _76  and  _77
REMARK   33  A    between atoms: _76  and  _79
REMARK   34  A    between atoms: _79  and  _80
REMARK   35  A    between atoms: _83  and  _85
REMARK   36  A    between atoms: _85  and  _86
REMARK   37  A    between atoms: _85  and  _88
REMARK   38  A    between atoms: _88  and  _89
REMARK   39  A    between atoms: _92  and  _94
REMARK   40  A    between atoms: _94  and  _95
REMARK   41  A    between atoms: _94  and  _97
REMARK   42  A    between atoms: _97  and  _98
REMARK   43  A    between atoms: _101  and  _103
REMARK   44  A    between atoms: _103  and  _104
REMARK   45  A    between atoms: _103  and  _106
REMARK   46  A    between atoms: _109  and  _111
REMARK   47  A    between atoms: _111  and  _112
REMARK   48  A    between atoms: _111  and  _114
REMARK   49  A    between atoms: _114  and  _115
REMARK   50  A    between atoms: _118  and  _120
REMARK   51  A    between atoms: _120  and  _121
REMARK   52  A    between atoms: _120  and  _123
REMARK   53  A    between atoms: _123  and  _124
REMARK   54  A    between atoms: _124  and  _125
REMARK   55  A    between atoms: _125  and  _126
REMARK   56  A    between atoms: _126  and  _127
REMARK   57  A    between atoms: _131  and  _133
REMARK   58  A    between atoms: _133  and  _134
REMARK   59  A    between atoms: _133  and  _136
REMARK   60  A    between atoms: _136  and  _137
REMARK   61  A    between atoms: _137  and  _138
REMARK   62  A    between atoms: _140  and  _142
REMARK   63  A    between atoms: _142  and  _143
REMARK   64  A    between atoms: _142  and  _145
REMARK   65  A    between atoms: _145  and  _146
REMARK   66  A    between atoms: _149  and  _151
REMARK   67  A    between atoms: _151  and  _152
REMARK   68  A    between atoms: _154  and  _156
REMARK   69  A    between atoms: _156  and  _157
REMARK   70  A    between atoms: _159  and  _161
REMARK   71  A    between atoms: _161  and  _162
REMARK   72  A    between atoms: _161  and  _164
REMARK   73  A    between atoms: _164  and  _165
REMARK   74  A    between atoms: _168  and  _170
REMARK   75  A    between atoms: _170  and  _171
REMARK   76  A    between atoms: _173  and  _175
REMARK   77  A    between atoms: _175  and  _176
REMARK   78  A    between atoms: _178  and  _180
REMARK   79  A    between atoms: _180  and  _181
REMARK   80  A    between atoms: _180  and  _183
REMARK   81  A    between atoms: _183  and  _184
REMARK   82  A    between atoms: _190  and  _192
REMARK   83  A    between atoms: _192  and  _193
REMARK   84  A    between atoms: _192  and  _195
REMARK   85  A    between atoms: _195  and  _196
REMARK   86  A    between atoms: _199  and  _201
REMARK   87  A    between atoms: _201  and  _202
REMARK   88  A    between atoms: _201  and  _204
REMARK   89  A    between atoms: _207  and  _209
REMARK   90  A    between atoms: _209  and  _210
REMARK   91  A    between atoms: _209  and  _212
REMARK   92  A    between atoms: _212  and  _213
REMARK   93  A    between atoms: _216  and  _218
REMARK   94  A    between atoms: _218  and  _219
REMARK   95  A    between atoms: _218  and  _221
REMARK   96  A    between atoms: _221  and  _222
REMARK   97  A    between atoms: _226  and  _227
REMARK   98  A    between atoms: _232  and  _234
REMARK   99  A    between atoms: _234  and  _235
REMARK  100  A    between atoms: _234  and  _237
REMARK  101  A    between atoms: _240  and  _242
REMARK  102  A    between atoms: _242  and  _243
REMARK  103  A    between atoms: _242  and  _245
REMARK  104  A    between atoms: _245  and  _246
REMARK  105  A    between atoms: _251  and  _253
REMARK  106  A    between atoms: _253  and  _254
REMARK  107  A    between atoms: _253  and  _256
REMARK  108  A    between atoms: _256  and  _257
REMARK  109  A    between atoms: _260  and  _262
REMARK  110  A    between atoms: _262  and  _263
REMARK  111  A    between atoms: _262  and  _265
REMARK  112  A    between atoms: _265  and  _266
REMARK  113  A    between atoms: _269  and  _271
REMARK  114  A    between atoms: _271  and  _272
REMARK  115  A    between atoms: _274  and  _276
REMARK  116  A    between atoms: _276  and  _277
REMARK  117  A    between atoms: _276  and  _279
REMARK  118  A    between atoms: _279  and  _280
REMARK  119  A    between atoms: _280  and  _281
REMARK  120  A    between atoms: _281  and  _282
REMARK  121  A    between atoms: _291  and  _293
REMARK  122  A    between atoms: _293  and  _294
REMARK  123  A    between atoms: _293  and  _296
REMARK  124  A    between atoms: _296  and  _297
REMARK  125  A    between atoms: _302  and  _304
REMARK  126  A    between atoms: _304  and  _305
REMARK  127  A    between atoms: _304  and  _307
REMARK  128  A    between atoms: _307  and  _308
REMARK  129  A    between atoms: _308  and  _309
REMARK  130  A    between atoms: _309  and  _310
REMARK  131  A    between atoms: _320  and  _321
REMARK  132  A    between atoms: _326  and  _328
REMARK  133  A    between atoms: _328  and  _329
REMARK  134  A    between atoms: _328  and  _331
REMARK  135  A    between atoms: _331  and  _332
REMARK  136  A    between atoms: _335  and  _337
REMARK  137  A    between atoms: _337  and  _338
REMARK  138  A    between atoms: _337  and  _340
REMARK  139  A    between atoms: _340  and  _341
REMARK  140  A    between atoms: _344  and  _346
REMARK  141  A    between atoms: _346  and  _347
REMARK  142  A    between atoms: _346  and  _349
REMARK  143  A    between atoms: _349  and  _350
REMARK  144  A    between atoms: _353  and  _355
REMARK  145  A    between atoms: _355  and  _356
REMARK  146  A    between atoms: _355  and  _358
REMARK  147  A    between atoms: _358  and  _359
REMARK  148  A    between atoms: _362  and  _364
REMARK  149  A    between atoms: _364  and  _365
REMARK  150  A    between atoms: _364  and  _367
REMARK  151  A    between atoms: _367  and  _368
REMARK  152  A    between atoms: _371  and  _373
REMARK  153  A    between atoms: _373  and  _374
REMARK  154  A    between atoms: _376  and  _378
REMARK  155  A    between atoms: _378  and  _379
REMARK  156  A    between atoms: _382  and  _384
REMARK  157  A    between atoms: _384  and  _385
REMARK  158  A    between atoms: _384  and  _387
REMARK  159  A    between atoms: _387  and  _388
REMARK  160  A    between atoms: _391  and  _393
REMARK  161  A    between atoms: _393  and  _394
REMARK  162  A    between atoms: _393  and  _396
REMARK  163  A    between atoms: _396  and  _397
REMARK  164  A    between atoms: _400  and  _402
REMARK  165  A    between atoms: _402  and  _403
REMARK  166  A    between atoms: _402  and  _405
REMARK  167  A    between atoms: _405  and  _406
REMARK  168  A    between atoms: _409  and  _411
REMARK  169  A    between atoms: _411  and  _412
REMARK  170  A    between atoms: _411  and  _414
REMARK  171  A    between atoms: _417  and  _419
REMARK  172  A    between atoms: _419  and  _420
REMARK  173  A    between atoms: _419  and  _422
REMARK  174  A    between atoms: _422  and  _423
REMARK  175  A    between atoms: _426  and  _428
REMARK  176  A    between atoms: _428  and  _429
REMARK  177  A    between atoms: _428  and  _431
REMARK  178  A    between atoms: _431  and  _432
REMARK  179  A    between atoms: _432  and  _433
REMARK  180  A    between atoms: _433  and  _434
REMARK  181  A    between atoms: _434  and  _435
REMARK  182  A    between atoms: _439  and  _441
REMARK  183  A    between atoms: _441  and  _442
REMARK  184  A    between atoms: _441  and  _444
REMARK  185  A    between atoms: _444  and  _445
REMARK  186  A    between atoms: _448  and  _450
REMARK  187  A    between atoms: _450  and  _451
REMARK  188  A    between atoms: _453  and  _455
REMARK  189  A    between atoms: _455  and  _456
REMARK  190  A    between atoms: _458  and  _460
REMARK  191  A    between atoms: _460  and  _461
REMARK  192  A    between atoms: _460  and  _463
REMARK  193  A    between atoms: _463  and  _464
REMARK  194  A    between atoms: _467  and  _469
REMARK  195  A    between atoms: _469  and  _470
REMARK  196  A    between atoms: _472  and  _474
REMARK  197  A    between atoms: _474  and  _475
REMARK  198  A    between atoms: _477  and  _479
REMARK  199  A    between atoms: _479  and  _480
REMARK  200  A    between atoms: _479  and  _482
REMARK  201  A    between atoms: _482  and  _483
REMARK  202  A    between atoms: _489  and  _491
REMARK  203  A    between atoms: _491  and  _492
REMARK  204  A    between atoms: _491  and  _494
REMARK  205  A    between atoms: _494  and  _495
REMARK  206  A    between atoms: _498  and  _500
REMARK  207  A    between atoms: _500  and  _501
REMARK  208  A    between atoms: _500  and  _503
REMARK  209  A    between atoms: _506  and  _508
REMARK  210  A    between atoms: _508  and  _509
REMARK  211  A    between atoms: _508  and  _511
REMARK  212  A    between atoms: _511  and  _512
REMARK  213  A    between atoms: _516  and  _517
REMARK  214  A    between atoms: _522  and  _524
REMARK  215  A    between atoms: _524  and  _525
REMARK  216  A    between atoms: _524  and  _527
REMARK  217  A    between atoms: _527  and  _528
REMARK  218  A    between atoms: _532  and  _533
REMARK  219  A    between atoms: _538  and  _540
REMARK  220  A    between atoms: _540  and  _541
REMARK  221  A    between atoms: _540  and  _543
REMARK  222  A    between atoms: _546  and  _548
REMARK  223  A    between atoms: _548  and  _549
REMARK  224  A    between atoms: _548  and  _551
REMARK  225  A    between atoms: _551  and  _552
REMARK  226  A    between atoms: _557  and  _559
REMARK  227  A    between atoms: _559  and  _560
REMARK  228  A    between atoms: _559  and  _562
REMARK  229  A    between atoms: _562  and  _563
REMARK  230  A    between atoms: _566  and  _568
REMARK  231  A    between atoms: _568  and  _569
REMARK  232  A    between atoms: _568  and  _571
REMARK  233  A    between atoms: _571  and  _572
REMARK  234  A    between atoms: _575  and  _577
REMARK  235  A    between atoms: _577  and  _578
REMARK  236  A    between atoms: _580  and  _582
REMARK  237  A    between atoms: _582  and  _583
REMARK  238  A    between atoms: _582  and  _585
REMARK  239  A    between atoms: _585  and  _586
REMARK  240  A    between atoms: _586  and  _587
REMARK  241  A    between atoms: _587  and  _588
REMARK                            x       y       z     vdW  Elec       q    Type
REMARK                         _______ _______ _______ _____ _____    ______ ____
ROOT
ATOM      1  O   HOH     1     -18.224  12.204  -1.597  0.00  0.00    +0.000 OA
ENDROOT
TORSDOF 0
REMARK  Name = ../refined-set-2016/2qnq/2qnq_pocket.pdb
REMARK  241 active torsions:
REMARK  status: ('A' for Active; 'I' for Inactive)
REMARK    1  A    between atoms: _1  and  _3
REMARK    2  A    between atoms: _3  and  _4
REMARK    3  A    between atoms: _3  and  _6
REMARK    4  A    between atoms: _6  and  _7
REMARK    5  A    between atoms: _7  and  _8
REMARK    6  A    between atoms: _8  and  _9
REMARK    7  A    between atoms: _18  and  _20
REMARK    8  A    between atoms: _20  and  _21
REMARK    9  A    between atoms: _20  and  _23
REMARK   10  A    between atoms: _23  and  _24
REMARK   11  A    between atoms: _27  and  _29
REMARK   12  A    between atoms: _29  and  _30
REMARK   13  A    between atoms: _29  and  _32
REMARK   14  A    between atoms: _32  and  _33
REMARK   15  A    between atoms: _36  and  _38
REMARK   16  A    between atoms: _38  and  _39
REMARK   17  A    between atoms: _38  and  _41
REMARK   18  A    between atoms: _41  and  _42
REMARK   19  A    between atoms: _45  and  _47
REMARK   20  A    between atoms: _47  and  _48
REMARK   21  A    between atoms: _47  and  _50
REMARK   22  A    between atoms: _50  and  _51
REMARK   23  A    between atoms: _54  and  _56
REMARK   24  A    between atoms: _56  and  _57
REMARK   25  A    between atoms: _56  and  _59
REMARK   26  A    between atoms: _59  and  _60
REMARK   27  A    between atoms: _63  and  _65
REMARK   28  A    between atoms: _65  and  _66
REMARK   29  A    between atoms: _68  and  _70
REMARK   30  A    between atoms: _70  and  _71
REMARK   31  A    between atoms: _74  and  _76
REMARK   32  A    between atoms: _76  and  _77
REMARK   33  A    between atoms: _76  and  _79
REMARK   34  A    between atoms: _79  and  _80
REMARK   35  A    between atoms: _83  and  _85
REMARK   36  A    between atoms: _85  and  _86
REMARK   37  A    between atoms: _85  and  _88
REMARK   38  A    between atoms: _88  and  _89
REMARK   39  A    between atoms: _92  and  _94
REMARK   40  A    between atoms: _94  and  _95
REMARK   41  A    between atoms: _94  and  _97
REMARK   42  A    between atoms: _97  and  _98
REMARK   43  A    between atoms: _101  and  _103
REMARK   44  A    between atoms: _103  and  _104
REMARK   45  A    between atoms: _103  and  _106
REMARK   46  A    between atoms: _109  and  _111
REMARK   47  A    between atoms: _111  and  _112
REMARK   48  A    between atoms: _111  and  _114
REMARK   49  A    between atoms: _114  and  _115
REMARK   50  A    between atoms: _118  and  _120
REMARK   51  A    between atoms: _120  and  _121
REMARK   52  A    between atoms: _120  and  _123
REMARK   53  A    between atoms: _123  and  _124
REMARK   54  A    between atoms: _124  and  _125
REMARK   55  A    between atoms: _125  and  _126
REMARK   56  A    between atoms: _126  and  _127
REMARK   57  A    between atoms: _131  and  _133
REMARK   58  A    between atoms: _133  and  _134
REMARK   59  A    between atoms: _133  and  _136
REMARK   60  A    between atoms: _136  and  _137
REMARK   61  A    between atoms: _137  and  _138
REMARK   62  A    between atoms: _140  and  _142
REMARK   63  A    between atoms: _142  and  _143
REMARK   64  A    between atoms: _142  and  _145
REMARK   65  A    between atoms: _145  and  _146
REMARK   66  A    between atoms: _149  and  _151
REMARK   67  A    between atoms: _151  and  _152
REMARK   68  A    between atoms: _154  and  _156
REMARK   69  A    between atoms: _156  and  _157
REMARK   70  A    between atoms: _159  and  _161
REMARK   71  A    between atoms: _161  and  _162
REMARK   72  A    between atoms: _161  and  _164
REMARK   73  A    between atoms: _164  and  _165
REMARK   74  A    between atoms: _168  and  _170
REMARK   75  A    between atoms: _170  and  _171
REMARK   76  A    between atoms: _173  and  _175
REMARK   77  A    between atoms: _175  and  _176
REMARK   78  A    between atoms: _178  and  _180
REMARK   79  A    between atoms: _180  and  _181
REMARK   80  A    between atoms: _180  and  _183
REMARK   81  A    between atoms: _183  and  _184
REMARK   82  A    between atoms: _190  and  _192
REMARK   83  A    between atoms: _192  and  _193
REMARK   84  A    between atoms: _192  and  _195
REMARK   85  A    between atoms: _195  and  _196
REMARK   86  A    between atoms: _199  and  _201
REMARK   87  A    between atoms: _201  and  _202
REMARK   88  A    between atoms: _201  and  _204
REMARK   89  A    between atoms: _207  and  _209
REMARK   90  A    between atoms: _209  and  _210
REMARK   91  A    between atoms: _209  and  _212
REMARK   92  A    between atoms: _212  and  _213
REMARK   93  A    between atoms: _216  and  _218
REMARK   94  A    between atoms: _218  and  _219
REMARK   95  A    between atoms: _218  and  _221
REMARK   96  A    between atoms: _221  and  _222
REMARK   97  A    between atoms: _226  and  _227
REMARK   98  A    between atoms: _232  and  _234
REMARK   99  A    between atoms: _234  and  _235
REMARK  100  A    between atoms: _234  and  _237
REMARK  101  A    between atoms: _240  and  _242
REMARK  102  A    between atoms: _242  and  _243
REMARK  103  A    between atoms: _242  and  _245
REMARK  104  A    between atoms: _245  and  _246
REMARK  105  A    between atoms: _251  and  _253
REMARK  106  A    between atoms: _253  and  _254
REMARK  107  A    between atoms: _253  and  _256
REMARK  108  A    between atoms: _256  and  _257
REMARK  109  A    between atoms: _260  and  _262
REMARK  110  A    between atoms: _262  and  _263
REMARK  111  A    between atoms: _262  and  _265
REMARK  112  A    between atoms: _265  and  _266
REMARK  113  A    between atoms: _269  and  _271
REMARK  114  A    between atoms: _271  and  _272
REMARK  115  A    between atoms: _274  and  _276
REMARK  116  A    between atoms: _276  and  _277
REMARK  117  A    between atoms: _276  and  _279
REMARK  118  A    between atoms: _279  and  _280
REMARK  119  A    between atoms: _280  and  _281
REMARK  120  A    between atoms: _281  and  _282
REMARK  121  A    between atoms: _291  and  _293
REMARK  122  A    between atoms: _293  and  _294
REMARK  123  A    between atoms: _293  and  _296
REMARK  124  A    between atoms: _296  and  _297
REMARK  125  A    between atoms: _302  and  _304
REMARK  126  A    between atoms: _304  and  _305
REMARK  127  A    between atoms: _304  and  _307
REMARK  128  A    between atoms: _307  and  _308
REMARK  129  A    between atoms: _308  and  _309
REMARK  130  A    between atoms: _309  and  _310
REMARK  131  A    between atoms: _320  and  _321
REMARK  132  A    between atoms: _326  and  _328
REMARK  133  A    between atoms: _328  and  _329
REMARK  134  A    between atoms: _328  and  _331
REMARK  135  A    between atoms: _331  and  _332
REMARK  136  A    between atoms: _335  and  _337
REMARK  137  A    between atoms: _337  and  _338
REMARK  138  A    between atoms: _337  and  _340
REMARK  139  A    between atoms: _340  and  _341
REMARK  140  A    between atoms: _344  and  _346
REMARK  141  A    between atoms: _346  and  _347
REMARK  142  A    between atoms: _346  and  _349
REMARK  143  A    between atoms: _349  and  _350
REMARK  144  A    between atoms: _353  and  _355
REMARK  145  A    between atoms: _355  and  _356
REMARK  146  A    between atoms: _355  and  _358
REMARK  147  A    between atoms: _358  and  _359
REMARK  148  A    between atoms: _362  and  _364
REMARK  149  A    between atoms: _364  and  _365
REMARK  150  A    between atoms: _364  and  _367
REMARK  151  A    between atoms: _367  and  _368
REMARK  152  A    between atoms: _371  and  _373
REMARK  153  A    between atoms: _373  and  _374
REMARK  154  A    between atoms: _376  and  _378
REMARK  155  A    between atoms: _378  and  _379
REMARK  156  A    between atoms: _382  and  _384
REMARK  157  A    between atoms: _384  and  _385
REMARK  158  A    between atoms: _384  and  _387
REMARK  159  A    between atoms: _387  and  _388
REMARK  160  A    between atoms: _391  and  _393
REMARK  161  A    between atoms: _393  and  _394
REMARK  162  A    between atoms: _393  and  _396
REMARK  163  A    between atoms: _396  and  _397
REMARK  164  A    between atoms: _400  and  _402
REMARK  165  A    between atoms: _402  and  _403
REMARK  166  A    between atoms: _402  and  _405
REMARK  167  A    between atoms: _405  and  _406
REMARK  168  A    between atoms: _409  and  _411
REMARK  169  A    between atoms: _411  and  _412
REMARK  170  A    between atoms: _411  and  _414
REMARK  171  A    between atoms: _417  and  _419
REMARK  172  A    between atoms: _419  and  _420
REMARK  173  A    between atoms: _419  and  _422
REMARK  174  A    between atoms: _422  and  _423
REMARK  175  A    between atoms: _426  and  _428
REMARK  176  A    between atoms: _428  and  _429
REMARK  177  A    between atoms: _428  and  _431
REMARK  178  A    between atoms: _431  and  _432
REMARK  179  A    between atoms: _432  and  _433
REMARK  180  A    between atoms: _433  and  _434
REMARK  181  A    between atoms: _434  and  _435
REMARK  182  A    between atoms: _439  and  _441
REMARK  183  A    between atoms: _441  and  _442
REMARK  184  A    between atoms: _441  and  _444
REMARK  185  A    between atoms: _444  and  _445
REMARK  186  A    between atoms: _448  and  _450
REMARK  187  A    between atoms: _450  and  _451
REMARK  188  A    between atoms: _453  and  _455
REMARK  189  A    between atoms: _455  and  _456
REMARK  190  A    between atoms: _458  and  _460
REMARK  191  A    between atoms: _460  and  _461
REMARK  192  A    between atoms: _460  and  _463
REMARK  193  A    between atoms: _463  and  _464
REMARK  194  A    between atoms: _467  and  _469
REMARK  195  A    between atoms: _469  and  _470
REMARK  196  A    between atoms: _472  and  _474
REMARK  197  A    between atoms: _474  and  _475
REMARK  198  A    between atoms: _477  and  _479
REMARK  199  A    between atoms: _479  and  _480
REMARK  200  A    between atoms: _479  and  _482
REMARK  201  A    between atoms: _482  and  _483
REMARK  202  A    between atoms: _489  and  _491
REMARK  203  A    between atoms: _491  and  _492
REMARK  204  A    between atoms: _491  and  _494
REMARK  205  A    between atoms: _494  and  _495
REMARK  206  A    between atoms: _498  and  _500
REMARK  207  A    between atoms: _500  and  _501
REMARK  208  A    between atoms: _500  and  _503
REMARK  209  A    between atoms: _506  and  _508
REMARK  210  A    between atoms: _508  and  _509
REMARK  211  A    between atoms: _508  and  _511
REMARK  212  A    between atoms: _511  and  _512
REMARK  213  A    between atoms: _516  and  _517
REMARK  214  A    between atoms: _522  and  _524
REMARK  215  A    between atoms: _524  and  _525
REMARK  216  A    between atoms: _524  and  _527
REMARK  217  A    between atoms: _527  and  _528
REMARK  218  A    between atoms: _532  and  _533
REMARK  219  A    between atoms: _538  and  _540
REMARK  220  A    between atoms: _540  and  _541
REMARK  221  A    between atoms: _540  and  _543
REMARK  222  A    between atoms: _546  and  _548
REMARK  223  A    between atoms: _548  and  _549
REMARK  224  A    between atoms: _548  and  _551
REMARK  225  A    between atoms: _551  and  _552
REMARK  226  A    between atoms: _557  and  _559
REMARK  227  A    between atoms: _559  and  _560
REMARK  228  A    between atoms: _559  and  _562
REMARK  229  A    between atoms: _562  and  _563
REMARK  230  A    between atoms: _566  and  _568
REMARK  231  A    between atoms: _568  and  _569
REMARK  232  A    between atoms: _568  and  _571
REMARK  233  A    between atoms: _571  and  _572
REMARK  234  A    between atoms: _575  and  _577
REMARK  235  A    between atoms: _577  and  _578
REMARK  236  A    between atoms: _580  and  _582
REMARK  237  A    between atoms: _582  and  _583
REMARK  238  A    between atoms: _582  and  _585
REMARK  239  A    between atoms: _585  and  _586
REMARK  240  A    between atoms: _586  and  _587
REMARK  241  A    between atoms: _587  and  _588
REMARK                            x       y       z     vdW  Elec       q    Type
REMARK                         _______ _______ _______ _____ _____    ______ ____
ROOT
ATOM      1  O   HOH     1     -20.254   9.380 -12.500  0.00  0.00    +0.000 OA
ENDROOT
TORSDOF 0
REMARK  Name = ../refined-set-2016/2qnq/2qnq_pocket.pdb
REMARK  241 active torsions:
REMARK  status: ('A' for Active; 'I' for Inactive)
REMARK    1  A    between atoms: _1  and  _3
REMARK    2  A    between atoms: _3  and  _4
REMARK    3  A    between atoms: _3  and  _6
REMARK    4  A    between atoms: _6  and  _7
REMARK    5  A    between atoms: _7  and  _8
REMARK    6  A    between atoms: _8  and  _9
REMARK    7  A    between atoms: _18  and  _20
REMARK    8  A    between atoms: _20  and  _21
REMARK    9  A    between atoms: _20  and  _23
REMARK   10  A    between atoms: _23  and  _24
REMARK   11  A    between atoms: _27  and  _29
REMARK   12  A    between atoms: _29  and  _30
REMARK   13  A    between atoms: _29  and  _32
REMARK   14  A    between atoms: _32  and  _33
REMARK   15  A    between atoms: _36  and  _38
REMARK   16  A    between atoms: _38  and  _39
REMARK   17  A    between atoms: _38  and  _41
REMARK   18  A    between atoms: _41  and  _42
REMARK   19  A    between atoms: _45  and  _47
REMARK   20  A    between atoms: _47  and  _48
REMARK   21  A    between atoms: _47  and  _50
REMARK   22  A    between atoms: _50  and  _51
REMARK   23  A    between atoms: _54  and  _56
REMARK   24  A    between atoms: _56  and  _57
REMARK   25  A    between atoms: _56  and  _59
REMARK   26  A    between atoms: _59  and  _60
REMARK   27  A    between atoms: _63  and  _65
REMARK   28  A    between atoms: _65  and  _66
REMARK   29  A    between atoms: _68  and  _70
REMARK   30  A    between atoms: _70  and  _71
REMARK   31  A    between atoms: _74  and  _76
REMARK   32  A    between atoms: _76  and  _77
REMARK   33  A    between atoms: _76  and  _79
REMARK   34  A    between atoms: _79  and  _80
REMARK   35  A    between atoms: _83  and  _85
REMARK   36  A    between atoms: _85  and  _86
REMARK   37  A    between atoms: _85  and  _88
REMARK   38  A    between atoms: _88  and  _89
REMARK   39  A    between atoms: _92  and  _94
REMARK   40  A    between atoms: _94  and  _95
REMARK   41  A    between atoms: _94  and  _97
REMARK   42  A    between atoms: _97  and  _98
REMARK   43  A    between atoms: _101  and  _103
REMARK   44  A    between atoms: _103  and  _104
REMARK   45  A    between atoms: _103  and  _106
REMARK   46  A    between atoms: _109  and  _111
REMARK   47  A    between atoms: _111  and  _112
REMARK   48  A    between atoms: _111  and  _114
REMARK   49  A    between atoms: _114  and  _115
REMARK   50  A    between atoms: _118  and  _120
REMARK   51  A    between atoms: _120  and  _121
REMARK   52  A    between atoms: _120  and  _123
REMARK   53  A    between atoms: _123  and  _124
REMARK   54  A    between atoms: _124  and  _125
REMARK   55  A    between atoms: _125  and  _126
REMARK   56  A    between atoms: _126  and  _127
REMARK   57  A    between atoms: _131  and  _133
REMARK   58  A    between atoms: _133  and  _134
REMARK   59  A    between atoms: _133  and  _136
REMARK   60  A    between atoms: _136  and  _137
REMARK   61  A    between atoms: _137  and  _138
REMARK   62  A    between atoms: _140  and  _142
REMARK   63  A    between atoms: _142  and  _143
REMARK   64  A    between atoms: _142  and  _145
REMARK   65  A    between atoms: _145  and  _146
REMARK   66  A    between atoms: _149  and  _151
REMARK   67  A    between atoms: _151  and  _152
REMARK   68  A    between atoms: _154  and  _156
REMARK   69  A    between atoms: _156  and  _157
REMARK   70  A    between atoms: _159  and  _161
REMARK   71  A    between atoms: _161  and  _162
REMARK   72  A    between atoms: _161  and  _164
REMARK   73  A    between atoms: _164  and  _165
REMARK   74  A    between atoms: _168  and  _170
REMARK   75  A    between atoms: _170  and  _171
REMARK   76  A    between atoms: _173  and  _175
REMARK   77  A    between atoms: _175  and  _176
REMARK   78  A    between atoms: _178  and  _180
REMARK   79  A    between atoms: _180  and  _181
REMARK   80  A    between atoms: _180  and  _183
REMARK   81  A    between atoms: _183  and  _184
REMARK   82  A    between atoms: _190  and  _192
REMARK   83  A    between atoms: _192  and  _193
REMARK   84  A    between atoms: _192  and  _195
REMARK   85  A    between atoms: _195  and  _196
REMARK   86  A    between atoms: _199  and  _201
REMARK   87  A    between atoms: _201  and  _202
REMARK   88  A    between atoms: _201  and  _204
REMARK   89  A    between atoms: _207  and  _209
REMARK   90  A    between atoms: _209  and  _210
REMARK   91  A    between atoms: _209  and  _212
REMARK   92  A    between atoms: _212  and  _213
REMARK   93  A    between atoms: _216  and  _218
REMARK   94  A    between atoms: _218  and  _219
REMARK   95  A    between atoms: _218  and  _221
REMARK   96  A    between atoms: _221  and  _222
REMARK   97  A    between atoms: _226  and  _227
REMARK   98  A    between atoms: _232  and  _234
REMARK   99  A    between atoms: _234  and  _235
REMARK  100  A    between atoms: _234  and  _237
REMARK  101  A    between atoms: _240  and  _242
REMARK  102  A    between atoms: _242  and  _243
REMARK  103  A    between atoms: _242  and  _245
REMARK  104  A    between atoms: _245  and  _246
REMARK  105  A    between atoms: _251  and  _253
REMARK  106  A    between atoms: _253  and  _254
REMARK  107  A    between atoms: _253  and  _256
REMARK  108  A    between atoms: _256  and  _257
REMARK  109  A    between atoms: _260  and  _262
REMARK  110  A    between atoms: _262  and  _263
REMARK  111  A    between atoms: _262  and  _265
REMARK  112  A    between atoms: _265  and  _266
REMARK  113  A    between atoms: _269  and  _271
REMARK  114  A    between atoms: _271  and  _272
REMARK  115  A    between atoms: _274  and  _276
REMARK  116  A    between atoms: _276  and  _277
REMARK  117  A    between atoms: _276  and  _279
REMARK  118  A    between atoms: _279  and  _280
REMARK  119  A    between atoms: _280  and  _281
REMARK  120  A    between atoms: _281  and  _282
REMARK  121  A    between atoms: _291  and  _293
REMARK  122  A    between atoms: _293  and  _294
REMARK  123  A    between atoms: _293  and  _296
REMARK  124  A    between atoms: _296  and  _297
REMARK  125  A    between atoms: _302  and  _304
REMARK  126  A    between atoms: _304  and  _305
REMARK  127  A    between atoms: _304  and  _307
REMARK  128  A    between atoms: _307  and  _308
REMARK  129  A    between atoms: _308  and  _309
REMARK  130  A    between atoms: _309  and  _310
REMARK  131  A    between atoms: _320  and  _321
REMARK  132  A    between atoms: _326  and  _328
REMARK  133  A    between atoms: _328  and  _329
REMARK  134  A    between atoms: _328  and  _331
REMARK  135  A    between atoms: _331  and  _332
REMARK  136  A    between atoms: _335  and  _337
REMARK  137  A    between atoms: _337  and  _338
REMARK  138  A    between atoms: _337  and  _340
REMARK  139  A    between atoms: _340  and  _341
REMARK  140  A    between atoms: _344  and  _346
REMARK  141  A    between atoms: _346  and  _347
REMARK  142  A    between atoms: _346  and  _349
REMARK  143  A    between atoms: _349  and  _350
REMARK  144  A    between atoms: _353  and  _355
REMARK  145  A    between atoms: _355  and  _356
REMARK  146  A    between atoms: _355  and  _358
REMARK  147  A    between atoms: _358  and  _359
REMARK  148  A    between atoms: _362  and  _364
REMARK  149  A    between atoms: _364  and  _365
REMARK  150  A    between atoms: _364  and  _367
REMARK  151  A    between atoms: _367  and  _368
REMARK  152  A    between atoms: _371  and  _373
REMARK  153  A    between atoms: _373  and  _374
REMARK  154  A    between atoms: _376  and  _378
REMARK  155  A    between atoms: _378  and  _379
REMARK  156  A    between atoms: _382  and  _384
REMARK  157  A    between atoms: _384  and  _385
REMARK  158  A    between atoms: _384  and  _387
REMARK  159  A    between atoms: _387  and  _388
REMARK  160  A    between atoms: _391  and  _393
REMARK  161  A    between atoms: _393  and  _394
REMARK  162  A    between atoms: _393  and  _396
REMARK  163  A    between atoms: _396  and  _397
REMARK  164  A    between atoms: _400  and  _402
REMARK  165  A    between atoms: _402  and  _403
REMARK  166  A    between atoms: _402  and  _405
REMARK  167  A    between atoms: _405  and  _406
REMARK  168  A    between atoms: _409  and  _411
REMARK  169  A    between atoms: _411  and  _412
REMARK  170  A    between atoms: _411  and  _414
REMARK  171  A    between atoms: _417  and  _419
REMARK  172  A    between atoms: _419  and  _420
REMARK  173  A    between atoms: _419  and  _422
REMARK  174  A    between atoms: _422  and  _423
REMARK  175  A    between atoms: _426  and  _428
REMARK  176  A    between atoms: _428  and  _429
REMARK  177  A    between atoms: _428  and  _431
REMARK  178  A    between atoms: _431  and  _432
REMARK  179  A    between atoms: _432  and  _433
REMARK  180  A    between atoms: _433  and  _434
REMARK  181  A    between atoms: _434  and  _435
REMARK  182  A    between atoms: _439  and  _441
REMARK  183  A    between atoms: _441  and  _442
REMARK  184  A    between atoms: _441  and  _444
REMARK  185  A    between atoms: _444  and  _445
REMARK  186  A    between atoms: _448  and  _450
REMARK  187  A    between atoms: _450  and  _451
REMARK  188  A    between atoms: _453  and  _455
REMARK  189  A    between atoms: _455  and  _456
REMARK  190  A    between atoms: _458  and  _460
REMARK  191  A    between atoms: _460  and  _461
REMARK  192  A    between atoms: _460  and  _463
REMARK  193  A    between atoms: _463  and  _464
REMARK  194  A    between atoms: _467  and  _469
REMARK  195  A    between atoms: _469  and  _470
REMARK  196  A    between atoms: _472  and  _474
REMARK  197  A    between atoms: _474  and  _475
REMARK  198  A    between atoms: _477  and  _479
REMARK  199  A    between atoms: _479  and  _480
REMARK  200  A    between atoms: _479  and  _482
REMARK  201  A    between atoms: _482  and  _483
REMARK  202  A    between atoms: _489  and  _491
REMARK  203  A    between atoms: _491  and  _492
REMARK  204  A    between atoms: _491  and  _494
REMARK  205  A    between atoms: _494  and  _495
REMARK  206  A    between atoms: _498  and  _500
REMARK  207  A    between atoms: _500  and  _501
REMARK  208  A    between atoms: _500  and  _503
REMARK  209  A    between atoms: _506  and  _508
REMARK  210  A    between atoms: _508  and  _509
REMARK  211  A    between atoms: _508  and  _511
REMARK  212  A    between atoms: _511  and  _512
REMARK  213  A    between atoms: _516  and  _517
REMARK  214  A    between atoms: _522  and  _524
REMARK  215  A    between atoms: _524  and  _525
REMARK  216  A    between atoms: _524  and  _527
REMARK  217  A    between atoms: _527  and  _528
REMARK  218  A    between atoms: _532  and  _533
REMARK  219  A    between atoms: _538  and  _540
REMARK  220  A    between atoms: _540  and  _541
REMARK  221  A    between atoms: _540  and  _543
REMARK  222  A    between atoms: _546  and  _548
REMARK  223  A    between atoms: _548  and  _549
REMARK  224  A    between atoms: _548  and  _551
REMARK  225  A    between atoms: _551  and  _552
REMARK  226  A    between atoms: _557  and  _559
REMARK  227  A    between atoms: _559  and  _560
REMARK  228  A    between atoms: _559  and  _562
REMARK  229  A    between atoms: _562  and  _563
REMARK  230  A    between atoms: _566  and  _568
REMARK  231  A    between atoms: _568  and  _569
REMARK  232  A    between atoms: _568  and  _571
REMARK  233  A    between atoms: _571  and  _572
REMARK  234  A    between atoms: _575  and  _577
REMARK  235  A    between atoms: _577  and  _578
REMARK  236  A    between atoms: _580  and  _582
REMARK  237  A    between atoms: _582  and  _583
REMARK  238  A    between atoms: _582  and  _585
REMARK  239  A    between atoms: _585  and  _586
REMARK  240  A    between atoms: _586  and  _587
REMARK  241  A    between atoms: _587  and  _588
REMARK                            x       y       z     vdW  Elec       q    Type
REMARK                         _______ _______ _______ _____ _____    ______ ____
ROOT
ATOM      1  O   HOH     1     -20.219  14.728  -4.872  0.00  0.00    +0.000 OA
ENDROOT
TORSDOF 0
REMARK  Name = ../refined-set-2016/2qnq/2qnq_pocket.pdb
REMARK  241 active torsions:
REMARK  status: ('A' for Active; 'I' for Inactive)
REMARK    1  A    between atoms: _1  and  _3
REMARK    2  A    between atoms: _3  and  _4
REMARK    3  A    between atoms: _3  and  _6
REMARK    4  A    between atoms: _6  and  _7
REMARK    5  A    between atoms: _7  and  _8
REMARK    6  A    between atoms: _8  and  _9
REMARK    7  A    between atoms: _18  and  _20
REMARK    8  A    between atoms: _20  and  _21
REMARK    9  A    between atoms: _20  and  _23
REMARK   10  A    between atoms: _23  and  _24
REMARK   11  A    between atoms: _27  and  _29
REMARK   12  A    between atoms: _29  and  _30
REMARK   13  A    between atoms: _29  and  _32
REMARK   14  A    between atoms: _32  and  _33
REMARK   15  A    between atoms: _36  and  _38
REMARK   16  A    between atoms: _38  and  _39
REMARK   17  A    between atoms: _38  and  _41
REMARK   18  A    between atoms: _41  and  _42
REMARK   19  A    between atoms: _45  and  _47
REMARK   20  A    between atoms: _47  and  _48
REMARK   21  A    between atoms: _47  and  _50
REMARK   22  A    between atoms: _50  and  _51
REMARK   23  A    between atoms: _54  and  _56
REMARK   24  A    between atoms: _56  and  _57
REMARK   25  A    between atoms: _56  and  _59
REMARK   26  A    between atoms: _59  and  _60
REMARK   27  A    between atoms: _63  and  _65
REMARK   28  A    between atoms: _65  and  _66
REMARK   29  A    between atoms: _68  and  _70
REMARK   30  A    between atoms: _70  and  _71
REMARK   31  A    between atoms: _74  and  _76
REMARK   32  A    between atoms: _76  and  _77
REMARK   33  A    between atoms: _76  and  _79
REMARK   34  A    between atoms: _79  and  _80
REMARK   35  A    between atoms: _83  and  _85
REMARK   36  A    between atoms: _85  and  _86
REMARK   37  A    between atoms: _85  and  _88
REMARK   38  A    between atoms: _88  and  _89
REMARK   39  A    between atoms: _92  and  _94
REMARK   40  A    between atoms: _94  and  _95
REMARK   41  A    between atoms: _94  and  _97
REMARK   42  A    between atoms: _97  and  _98
REMARK   43  A    between atoms: _101  and  _103
REMARK   44  A    between atoms: _103  and  _104
REMARK   45  A    between atoms: _103  and  _106
REMARK   46  A    between atoms: _109  and  _111
REMARK   47  A    between atoms: _111  and  _112
REMARK   48  A    between atoms: _111  and  _114
REMARK   49  A    between atoms: _114  and  _115
REMARK   50  A    between atoms: _118  and  _120
REMARK   51  A    between atoms: _120  and  _121
REMARK   52  A    between atoms: _120  and  _123
REMARK   53  A    between atoms: _123  and  _124
REMARK   54  A    between atoms: _124  and  _125
REMARK   55  A    between atoms: _125  and  _126
REMARK   56  A    between atoms: _126  and  _127
REMARK   57  A    between atoms: _131  and  _133
REMARK   58  A    between atoms: _133  and  _134
REMARK   59  A    between atoms: _133  and  _136
REMARK   60  A    between atoms: _136  and  _137
REMARK   61  A    between atoms: _137  and  _138
REMARK   62  A    between atoms: _140  and  _142
REMARK   63  A    between atoms: _142  and  _143
REMARK   64  A    between atoms: _142  and  _145
REMARK   65  A    between atoms: _145  and  _146
REMARK   66  A    between atoms: _149  and  _151
REMARK   67  A    between atoms: _151  and  _152
REMARK   68  A    between atoms: _154  and  _156
REMARK   69  A    between atoms: _156  and  _157
REMARK   70  A    between atoms: _159  and  _161
REMARK   71  A    between atoms: _161  and  _162
REMARK   72  A    between atoms: _161  and  _164
REMARK   73  A    between atoms: _164  and  _165
REMARK   74  A    between atoms: _168  and  _170
REMARK   75  A    between atoms: _170  and  _171
REMARK   76  A    between atoms: _173  and  _175
REMARK   77  A    between atoms: _175  and  _176
REMARK   78  A    between atoms: _178  and  _180
REMARK   79  A    between atoms: _180  and  _181
REMARK   80  A    between atoms: _180  and  _183
REMARK   81  A    between atoms: _183  and  _184
REMARK   82  A    between atoms: _190  and  _192
REMARK   83  A    between atoms: _192  and  _193
REMARK   84  A    between atoms: _192  and  _195
REMARK   85  A    between atoms: _195  and  _196
REMARK   86  A    between atoms: _199  and  _201
REMARK   87  A    between atoms: _201  and  _202
REMARK   88  A    between atoms: _201  and  _204
REMARK   89  A    between atoms: _207  and  _209
REMARK   90  A    between atoms: _209  and  _210
REMARK   91  A    between atoms: _209  and  _212
REMARK   92  A    between atoms: _212  and  _213
REMARK   93  A    between atoms: _216  and  _218
REMARK   94  A    between atoms: _218  and  _219
REMARK   95  A    between atoms: _218  and  _221
REMARK   96  A    between atoms: _221  and  _222
REMARK   97  A    between atoms: _226  and  _227
REMARK   98  A    between atoms: _232  and  _234
REMARK   99  A    between atoms: _234  and  _235
REMARK  100  A    between atoms: _234  and  _237
REMARK  101  A    between atoms: _240  and  _242
REMARK  102  A    between atoms: _242  and  _243
REMARK  103  A    between atoms: _242  and  _245
REMARK  104  A    between atoms: _245  and  _246
REMARK  105  A    between atoms: _251  and  _253
REMARK  106  A    between atoms: _253  and  _254
REMARK  107  A    between atoms: _253  and  _256
REMARK  108  A    between atoms: _256  and  _257
REMARK  109  A    between atoms: _260  and  _262
REMARK  110  A    between atoms: _262  and  _263
REMARK  111  A    between atoms: _262  and  _265
REMARK  112  A    between atoms: _265  and  _266
REMARK  113  A    between atoms: _269  and  _271
REMARK  114  A    between atoms: _271  and  _272
REMARK  115  A    between atoms: _274  and  _276
REMARK  116  A    between atoms: _276  and  _277
REMARK  117  A    between atoms: _276  and  _279
REMARK  118  A    between atoms: _279  and  _280
REMARK  119  A    between atoms: _280  and  _281
REMARK  120  A    between atoms: _281  and  _282
REMARK  121  A    between atoms: _291  and  _293
REMARK  122  A    between atoms: _293  and  _294
REMARK  123  A    between atoms: _293  and  _296
REMARK  124  A    between atoms: _296  and  _297
REMARK  125  A    between atoms: _302  and  _304
REMARK  126  A    between atoms: _304  and  _305
REMARK  127  A    between atoms: _304  and  _307
REMARK  128  A    between atoms: _307  and  _308
REMARK  129  A    between atoms: _308  and  _309
REMARK  130  A    between atoms: _309  and  _310
REMARK  131  A    between atoms: _320  and  _321
REMARK  132  A    between atoms: _326  and  _328
REMARK  133  A    between atoms: _328  and  _329
REMARK  134  A    between atoms: _328  and  _331
REMARK  135  A    between atoms: _331  and  _332
REMARK  136  A    between atoms: _335  and  _337
REMARK  137  A    between atoms: _337  and  _338
REMARK  138  A    between atoms: _337  and  _340
REMARK  139  A    between atoms: _340  and  _341
REMARK  140  A    between atoms: _344  and  _346
REMARK  141  A    between atoms: _346  and  _347
REMARK  142  A    between atoms: _346  and  _349
REMARK  143  A    between atoms: _349  and  _350
REMARK  144  A    between atoms: _353  and  _355
REMARK  145  A    between atoms: _355  and  _356
REMARK  146  A    between atoms: _355  and  _358
REMARK  147  A    between atoms: _358  and  _359
REMARK  148  A    between atoms: _362  and  _364
REMARK  149  A    between atoms: _364  and  _365
REMARK  150  A    between atoms: _364  and  _367
REMARK  151  A    between atoms: _367  and  _368
REMARK  152  A    between atoms: _371  and  _373
REMARK  153  A    between atoms: _373  and  _374
REMARK  154  A    between atoms: _376  and  _378
REMARK  155  A    between atoms: _378  and  _379
REMARK  156  A    between atoms: _382  and  _384
REMARK  157  A    between atoms: _384  and  _385
REMARK  158  A    between atoms: _384  and  _387
REMARK  159  A    between atoms: _387  and  _388
REMARK  160  A    between atoms: _391  and  _393
REMARK  161  A    between atoms: _393  and  _394
REMARK  162  A    between atoms: _393  and  _396
REMARK  163  A    between atoms: _396  and  _397
REMARK  164  A    between atoms: _400  and  _402
REMARK  165  A    between atoms: _402  and  _403
REMARK  166  A    between atoms: _402  and  _405
REMARK  167  A    between atoms: _405  and  _406
REMARK  168  A    between atoms: _409  and  _411
REMARK  169  A    between atoms: _411  and  _412
REMARK  170  A    between atoms: _411  and  _414
REMARK  171  A    between atoms: _417  and  _419
REMARK  172  A    between atoms: _419  and  _420
REMARK  173  A    between atoms: _419  and  _422
REMARK  174  A    between atoms: _422  and  _423
REMARK  175  A    between atoms: _426  and  _428
REMARK  176  A    between atoms: _428  and  _429
REMARK  177  A    between atoms: _428  and  _431
REMARK  178  A    between atoms: _431  and  _432
REMARK  179  A    between atoms: _432  and  _433
REMARK  180  A    between atoms: _433  and  _434
REMARK  181  A    between atoms: _434  and  _435
REMARK  182  A    between atoms: _439  and  _441
REMARK  183  A    between atoms: _441  and  _442
REMARK  184  A    between atoms: _441  and  _444
REMARK  185  A    between atoms: _444  and  _445
REMARK  186  A    between atoms: _448  and  _450
REMARK  187  A    between atoms: _450  and  _451
REMARK  188  A    between atoms: _453  and  _455
REMARK  189  A    between atoms: _455  and  _456
REMARK  190  A    between atoms: _458  and  _460
REMARK  191  A    between atoms: _460  and  _461
REMARK  192  A    between atoms: _460  and  _463
REMARK  193  A    between atoms: _463  and  _464
REMARK  194  A    between atoms: _467  and  _469
REMARK  195  A    between atoms: _469  and  _470
REMARK  196  A    between atoms: _472  and  _474
REMARK  197  A    between atoms: _474  and  _475
REMARK  198  A    between atoms: _477  and  _479
REMARK  199  A    between atoms: _479  and  _480
REMARK  200  A    between atoms: _479  and  _482
REMARK  201  A    between atoms: _482  and  _483
REMARK  202  A    between atoms: _489  and  _491
REMARK  203  A    between atoms: _491  and  _492
REMARK  204  A    between atoms: _491  and  _494
REMARK  205  A    between atoms: _494  and  _495
REMARK  206  A    between atoms: _498  and  _500
REMARK  207  A    between atoms: _500  and  _501
REMARK  208  A    between atoms: _500  and  _503
REMARK  209  A    between atoms: _506  and  _508
REMARK  210  A    between atoms: _508  and  _509
REMARK  211  A    between atoms: _508  and  _511
REMARK  212  A    between atoms: _511  and  _512
REMARK  213  A    between atoms: _516  and  _517
REMARK  214  A    between atoms: _522  and  _524
REMARK  215  A    between atoms: _524  and  _525
REMARK  216  A    between atoms: _524  and  _527
REMARK  217  A    between atoms: _527  and  _528
REMARK  218  A    between atoms: _532  and  _533
REMARK  219  A    between atoms: _538  and  _540
REMARK  220  A    between atoms: _540  and  _541
REMARK  221  A    between atoms: _540  and  _543
REMARK  222  A    between atoms: _546  and  _548
REMARK  223  A    between atoms: _548  and  _549
REMARK  224  A    between atoms: _548  and  _551
REMARK  225  A    between atoms: _551  and  _552
REMARK  226  A    between atoms: _557  and  _559
REMARK  227  A    between atoms: _559  and  _560
REMARK  228  A    between atoms: _559  and  _562
REMARK  229  A    between atoms: _562  and  _563
REMARK  230  A    between atoms: _566  and  _568
REMARK  231  A    between atoms: _568  and  _569
REMARK  232  A    between atoms: _568  and  _571
REMARK  233  A    between atoms: _571  and  _572
REMARK  234  A    between atoms: _575  and  _577
REMARK  235  A    between atoms: _577  and  _578
REMARK  236  A    between atoms: _580  and  _582
REMARK  237  A    between atoms: _582  and  _583
REMARK  238  A    between atoms: _582  and  _585
REMARK  239  A    between atoms: _585  and  _586
REMARK  240  A    between atoms: _586  and  _587
REMARK  241  A    between atoms: _587  and  _588
REMARK                            x       y       z     vdW  Elec       q    Type
REMARK                         _______ _______ _______ _____ _____    ______ ____
ROOT
ATOM      1  O   HOH     1     -25.353  17.623  -7.336  0.00  0.00    +0.000 OA
ENDROOT
TORSDOF 0
REMARK  Name = ../refined-set-2016/2qnq/2qnq_pocket.pdb
REMARK  241 active torsions:
REMARK  status: ('A' for Active; 'I' for Inactive)
REMARK    1  A    between atoms: _1  and  _3
REMARK    2  A    between atoms: _3  and  _4
REMARK    3  A    between atoms: _3  and  _6
REMARK    4  A    between atoms: _6  and  _7
REMARK    5  A    between atoms: _7  and  _8
REMARK    6  A    between atoms: _8  and  _9
REMARK    7  A    between atoms: _18  and  _20
REMARK    8  A    between atoms: _20  and  _21
REMARK    9  A    between atoms: _20  and  _23
REMARK   10  A    between atoms: _23  and  _24
REMARK   11  A    between atoms: _27  and  _29
REMARK   12  A    between atoms: _29  and  _30
REMARK   13  A    between atoms: _29  and  _32
REMARK   14  A    between atoms: _32  and  _33
REMARK   15  A    between atoms: _36  and  _38
REMARK   16  A    between atoms: _38  and  _39
REMARK   17  A    between atoms: _38  and  _41
REMARK   18  A    between atoms: _41  and  _42
REMARK   19  A    between atoms: _45  and  _47
REMARK   20  A    between atoms: _47  and  _48
REMARK   21  A    between atoms: _47  and  _50
REMARK   22  A    between atoms: _50  and  _51
REMARK   23  A    between atoms: _54  and  _56
REMARK   24  A    between atoms: _56  and  _57
REMARK   25  A    between atoms: _56  and  _59
REMARK   26  A    between atoms: _59  and  _60
REMARK   27  A    between atoms: _63  and  _65
REMARK   28  A    between atoms: _65  and  _66
REMARK   29  A    between atoms: _68  and  _70
REMARK   30  A    between atoms: _70  and  _71
REMARK   31  A    between atoms: _74  and  _76
REMARK   32  A    between atoms: _76  and  _77
REMARK   33  A    between atoms: _76  and  _79
REMARK   34  A    between atoms: _79  and  _80
REMARK   35  A    between atoms: _83  and  _85
REMARK   36  A    between atoms: _85  and  _86
REMARK   37  A    between atoms: _85  and  _88
REMARK   38  A    between atoms: _88  and  _89
REMARK   39  A    between atoms: _92  and  _94
REMARK   40  A    between atoms: _94  and  _95
REMARK   41  A    between atoms: _94  and  _97
REMARK   42  A    between atoms: _97  and  _98
REMARK   43  A    between atoms: _101  and  _103
REMARK   44  A    between atoms: _103  and  _104
REMARK   45  A    between atoms: _103  and  _106
REMARK   46  A    between atoms: _109  and  _111
REMARK   47  A    between atoms: _111  and  _112
REMARK   48  A    between atoms: _111  and  _114
REMARK   49  A    between atoms: _114  and  _115
REMARK   50  A    between atoms: _118  and  _120
REMARK   51  A    between atoms: _120  and  _121
REMARK   52  A    between atoms: _120  and  _123
REMARK   53  A    between atoms: _123  and  _124
REMARK   54  A    between atoms: _124  and  _125
REMARK   55  A    between atoms: _125  and  _126
REMARK   56  A    between atoms: _126  and  _127
REMARK   57  A    between atoms: _131  and  _133
REMARK   58  A    between atoms: _133  and  _134
REMARK   59  A    between atoms: _133  and  _136
REMARK   60  A    between atoms: _136  and  _137
REMARK   61  A    between atoms: _137  and  _138
REMARK   62  A    between atoms: _140  and  _142
REMARK   63  A    between atoms: _142  and  _143
REMARK   64  A    between atoms: _142  and  _145
REMARK   65  A    between atoms: _145  and  _146
REMARK   66  A    between atoms: _149  and  _151
REMARK   67  A    between atoms: _151  and  _152
REMARK   68  A    between atoms: _154  and  _156
REMARK   69  A    between atoms: _156  and  _157
REMARK   70  A    between atoms: _159  and  _161
REMARK   71  A    between atoms: _161  and  _162
REMARK   72  A    between atoms: _161  and  _164
REMARK   73  A    between atoms: _164  and  _165
REMARK   74  A    between atoms: _168  and  _170
REMARK   75  A    between atoms: _170  and  _171
REMARK   76  A    between atoms: _173  and  _175
REMARK   77  A    between atoms: _175  and  _176
REMARK   78  A    between atoms: _178  and  _180
REMARK   79  A    between atoms: _180  and  _181
REMARK   80  A    between atoms: _180  and  _183
REMARK   81  A    between atoms: _183  and  _184
REMARK   82  A    between atoms: _190  and  _192
REMARK   83  A    between atoms: _192  and  _193
REMARK   84  A    between atoms: _192  and  _195
REMARK   85  A    between atoms: _195  and  _196
REMARK   86  A    between atoms: _199  and  _201
REMARK   87  A    between atoms: _201  and  _202
REMARK   88  A    between atoms: _201  and  _204
REMARK   89  A    between atoms: _207  and  _209
REMARK   90  A    between atoms: _209  and  _210
REMARK   91  A    between atoms: _209  and  _212
REMARK   92  A    between atoms: _212  and  _213
REMARK   93  A    between atoms: _216  and  _218
REMARK   94  A    between atoms: _218  and  _219
REMARK   95  A    between atoms: _218  and  _221
REMARK   96  A    between atoms: _221  and  _222
REMARK   97  A    between atoms: _226  and  _227
REMARK   98  A    between atoms: _232  and  _234
REMARK   99  A    between atoms: _234  and  _235
REMARK  100  A    between atoms: _234  and  _237
REMARK  101  A    between atoms: _240  and  _242
REMARK  102  A    between atoms: _242  and  _243
REMARK  103  A    between atoms: _242  and  _245
REMARK  104  A    between atoms: _245  and  _246
REMARK  105  A    between atoms: _251  and  _253
REMARK  106  A    between atoms: _253  and  _254
REMARK  107  A    between atoms: _253  and  _256
REMARK  108  A    between atoms: _256  and  _257
REMARK  109  A    between atoms: _260  and  _262
REMARK  110  A    between atoms: _262  and  _263
REMARK  111  A    between atoms: _262  and  _265
REMARK  112  A    between atoms: _265  and  _266
REMARK  113  A    between atoms: _269  and  _271
REMARK  114  A    between atoms: _271  and  _272
REMARK  115  A    between atoms: _274  and  _276
REMARK  116  A    between atoms: _276  and  _277
REMARK  117  A    between atoms: _276  and  _279
REMARK  118  A    between atoms: _279  and  _280
REMARK  119  A    between atoms: _280  and  _281
REMARK  120  A    between atoms: _281  and  _282
REMARK  121  A    between atoms: _291  and  _293
REMARK  122  A    between atoms: _293  and  _294
REMARK  123  A    between atoms: _293  and  _296
REMARK  124  A    between atoms: _296  and  _297
REMARK  125  A    between atoms: _302  and  _304
REMARK  126  A    between atoms: _304  and  _305
REMARK  127  A    between atoms: _304  and  _307
REMARK  128  A    between atoms: _307  and  _308
REMARK  129  A    between atoms: _308  and  _309
REMARK  130  A    between atoms: _309  and  _310
REMARK  131  A    between atoms: _320  and  _321
REMARK  132  A    between atoms: _326  and  _328
REMARK  133  A    between atoms: _328  and  _329
REMARK  134  A    between atoms: _328  and  _331
REMARK  135  A    between atoms: _331  and  _332
REMARK  136  A    between atoms: _335  and  _337
REMARK  137  A    between atoms: _337  and  _338
REMARK  138  A    between atoms: _337  and  _340
REMARK  139  A    between atoms: _340  and  _341
REMARK  140  A    between atoms: _344  and  _346
REMARK  141  A    between atoms: _346  and  _347
REMARK  142  A    between atoms: _346  and  _349
REMARK  143  A    between atoms: _349  and  _350
REMARK  144  A    between atoms: _353  and  _355
REMARK  145  A    between atoms: _355  and  _356
REMARK  146  A    between atoms: _355  and  _358
REMARK  147  A    between atoms: _358  and  _359
REMARK  148  A    between atoms: _362  and  _364
REMARK  149  A    between atoms: _364  and  _365
REMARK  150  A    between atoms: _364  and  _367
REMARK  151  A    between atoms: _367  and  _368
REMARK  152  A    between atoms: _371  and  _373
REMARK  153  A    between atoms: _373  and  _374
REMARK  154  A    between atoms: _376  and  _378
REMARK  155  A    between atoms: _378  and  _379
REMARK  156  A    between atoms: _382  and  _384
REMARK  157  A    between atoms: _384  and  _385
REMARK  158  A    between atoms: _384  and  _387
REMARK  159  A    between atoms: _387  and  _388
REMARK  160  A    between atoms: _391  and  _393
REMARK  161  A    between atoms: _393  and  _394
REMARK  162  A    between atoms: _393  and  _396
REMARK  163  A    between atoms: _396  and  _397
REMARK  164  A    between atoms: _400  and  _402
REMARK  165  A    between atoms: _402  and  _403
REMARK  166  A    between atoms: _402  and  _405
REMARK  167  A    between atoms: _405  and  _406
REMARK  168  A    between atoms: _409  and  _411
REMARK  169  A    between atoms: _411  and  _412
REMARK  170  A    between atoms: _411  and  _414
REMARK  171  A    between atoms: _417  and  _419
REMARK  172  A    between atoms: _419  and  _420
REMARK  173  A    between atoms: _419  and  _422
REMARK  174  A    between atoms: _422  and  _423
REMARK  175  A    between atoms: _426  and  _428
REMARK  176  A    between atoms: _428  and  _429
REMARK  177  A    between atoms: _428  and  _431
REMARK  178  A    between atoms: _431  and  _432
REMARK  179  A    between atoms: _432  and  _433
REMARK  180  A    between atoms: _433  and  _434
REMARK  181  A    between atoms: _434  and  _435
REMARK  182  A    between atoms: _439  and  _441
REMARK  183  A    between atoms: _441  and  _442
REMARK  184  A    between atoms: _441  and  _444
REMARK  185  A    between atoms: _444  and  _445
REMARK  186  A    between atoms: _448  and  _450
REMARK  187  A    between atoms: _450  and  _451
REMARK  188  A    between atoms: _453  and  _455
REMARK  189  A    between atoms: _455  and  _456
REMARK  190  A    between atoms: _458  and  _460
REMARK  191  A    between atoms: _460  and  _461
REMARK  192  A    between atoms: _460  and  _463
REMARK  193  A    between atoms: _463  and  _464
REMARK  194  A    between atoms: _467  and  _469
REMARK  195  A    between atoms: _469  and  _470
REMARK  196  A    between atoms: _472  and  _474
REMARK  197  A    between atoms: _474  and  _475
REMARK  198  A    between atoms: _477  and  _479
REMARK  199  A    between atoms: _479  and  _480
REMARK  200  A    between atoms: _479  and  _482
REMARK  201  A    between atoms: _482  and  _483
REMARK  202  A    between atoms: _489  and  _491
REMARK  203  A    between atoms: _491  and  _492
REMARK  204  A    between atoms: _491  and  _494
REMARK  205  A    between atoms: _494  and  _495
REMARK  206  A    between atoms: _498  and  _500
REMARK  207  A    between atoms: _500  and  _501
REMARK  208  A    between atoms: _500  and  _503
REMARK  209  A    between atoms: _506  and  _508
REMARK  210  A    between atoms: _508  and  _509
REMARK  211  A    between atoms: _508  and  _511
REMARK  212  A    between atoms: _511  and  _512
REMARK  213  A    between atoms: _516  and  _517
REMARK  214  A    between atoms: _522  and  _524
REMARK  215  A    between atoms: _524  and  _525
REMARK  216  A    between atoms: _524  and  _527
REMARK  217  A    between atoms: _527  and  _528
REMARK  218  A    between atoms: _532  and  _533
REMARK  219  A    between atoms: _538  and  _540
REMARK  220  A    between atoms: _540  and  _541
REMARK  221  A    between atoms: _540  and  _543
REMARK  222  A    between atoms: _546  and  _548
REMARK  223  A    between atoms: _548  and  _549
REMARK  224  A    between atoms: _548  and  _551
REMARK  225  A    between atoms: _551  and  _552
REMARK  226  A    between atoms: _557  and  _559
REMARK  227  A    between atoms: _559  and  _560
REMARK  228  A    between atoms: _559  and  _562
REMARK  229  A    between atoms: _562  and  _563
REMARK  230  A    between atoms: _566  and  _568
REMARK  231  A    between atoms: _568  and  _569
REMARK  232  A    between atoms: _568  and  _571
REMARK  233  A    between atoms: _571  and  _572
REMARK  234  A    between atoms: _575  and  _577
REMARK  235  A    between atoms: _577  and  _578
REMARK  236  A    between atoms: _580  and  _582
REMARK  237  A    between atoms: _582  and  _583
REMARK  238  A    between atoms: _582  and  _585
REMARK  239  A    between atoms: _585  and  _586
REMARK  240  A    between atoms: _586  and  _587
REMARK  241  A    between atoms: _587  and  _588
REMARK                            x       y       z     vdW  Elec       q    Type
REMARK                         _______ _______ _______ _____ _____    ______ ____
ROOT
ATOM      1  O   HOH     1      -7.309  19.394  -4.715  0.00  0.00    +0.000 OA
ENDROOT
TORSDOF 0
REMARK  Name = ../refined-set-2016/2qnq/2qnq_pocket.pdb
REMARK  241 active torsions:
REMARK  status: ('A' for Active; 'I' for Inactive)
REMARK    1  A    between atoms: _1  and  _3
REMARK    2  A    between atoms: _3  and  _4
REMARK    3  A    between atoms: _3  and  _6
REMARK    4  A    between atoms: _6  and  _7
REMARK    5  A    between atoms: _7  and  _8
REMARK    6  A    between atoms: _8  and  _9
REMARK    7  A    between atoms: _18  and  _20
REMARK    8  A    between atoms: _20  and  _21
REMARK    9  A    between atoms: _20  and  _23
REMARK   10  A    between atoms: _23  and  _24
REMARK   11  A    between atoms: _27  and  _29
REMARK   12  A    between atoms: _29  and  _30
REMARK   13  A    between atoms: _29  and  _32
REMARK   14  A    between atoms: _32  and  _33
REMARK   15  A    between atoms: _36  and  _38
REMARK   16  A    between atoms: _38  and  _39
REMARK   17  A    between atoms: _38  and  _41
REMARK   18  A    between atoms: _41  and  _42
REMARK   19  A    between atoms: _45  and  _47
REMARK   20  A    between atoms: _47  and  _48
REMARK   21  A    between atoms: _47  and  _50
REMARK   22  A    between atoms: _50  and  _51
REMARK   23  A    between atoms: _54  and  _56
REMARK   24  A    between atoms: _56  and  _57
REMARK   25  A    between atoms: _56  and  _59
REMARK   26  A    between atoms: _59  and  _60
REMARK   27  A    between atoms: _63  and  _65
REMARK   28  A    between atoms: _65  and  _66
REMARK   29  A    between atoms: _68  and  _70
REMARK   30  A    between atoms: _70  and  _71
REMARK   31  A    between atoms: _74  and  _76
REMARK   32  A    between atoms: _76  and  _77
REMARK   33  A    between atoms: _76  and  _79
REMARK   34  A    between atoms: _79  and  _80
REMARK   35  A    between atoms: _83  and  _85
REMARK   36  A    between atoms: _85  and  _86
REMARK   37  A    between atoms: _85  and  _88
REMARK   38  A    between atoms: _88  and  _89
REMARK   39  A    between atoms: _92  and  _94
REMARK   40  A    between atoms: _94  and  _95
REMARK   41  A    between atoms: _94  and  _97
REMARK   42  A    between atoms: _97  and  _98
REMARK   43  A    between atoms: _101  and  _103
REMARK   44  A    between atoms: _103  and  _104
REMARK   45  A    between atoms: _103  and  _106
REMARK   46  A    between atoms: _109  and  _111
REMARK   47  A    between atoms: _111  and  _112
REMARK   48  A    between atoms: _111  and  _114
REMARK   49  A    between atoms: _114  and  _115
REMARK   50  A    between atoms: _118  and  _120
REMARK   51  A    between atoms: _120  and  _121
REMARK   52  A    between atoms: _120  and  _123
REMARK   53  A    between atoms: _123  and  _124
REMARK   54  A    between atoms: _124  and  _125
REMARK   55  A    between atoms: _125  and  _126
REMARK   56  A    between atoms: _126  and  _127
REMARK   57  A    between atoms: _131  and  _133
REMARK   58  A    between atoms: _133  and  _134
REMARK   59  A    between atoms: _133  and  _136
REMARK   60  A    between atoms: _136  and  _137
REMARK   61  A    between atoms: _137  and  _138
REMARK   62  A    between atoms: _140  and  _142
REMARK   63  A    between atoms: _142  and  _143
REMARK   64  A    between atoms: _142  and  _145
REMARK   65  A    between atoms: _145  and  _146
REMARK   66  A    between atoms: _149  and  _151
REMARK   67  A    between atoms: _151  and  _152
REMARK   68  A    between atoms: _154  and  _156
REMARK   69  A    between atoms: _156  and  _157
REMARK   70  A    between atoms: _159  and  _161
REMARK   71  A    between atoms: _161  and  _162
REMARK   72  A    between atoms: _161  and  _164
REMARK   73  A    between atoms: _164  and  _165
REMARK   74  A    between atoms: _168  and  _170
REMARK   75  A    between atoms: _170  and  _171
REMARK   76  A    between atoms: _173  and  _175
REMARK   77  A    between atoms: _175  and  _176
REMARK   78  A    between atoms: _178  and  _180
REMARK   79  A    between atoms: _180  and  _181
REMARK   80  A    between atoms: _180  and  _183
REMARK   81  A    between atoms: _183  and  _184
REMARK   82  A    between atoms: _190  and  _192
REMARK   83  A    between atoms: _192  and  _193
REMARK   84  A    between atoms: _192  and  _195
REMARK   85  A    between atoms: _195  and  _196
REMARK   86  A    between atoms: _199  and  _201
REMARK   87  A    between atoms: _201  and  _202
REMARK   88  A    between atoms: _201  and  _204
REMARK   89  A    between atoms: _207  and  _209
REMARK   90  A    between atoms: _209  and  _210
REMARK   91  A    between atoms: _209  and  _212
REMARK   92  A    between atoms: _212  and  _213
REMARK   93  A    between atoms: _216  and  _218
REMARK   94  A    between atoms: _218  and  _219
REMARK   95  A    between atoms: _218  and  _221
REMARK   96  A    between atoms: _221  and  _222
REMARK   97  A    between atoms: _226  and  _227
REMARK   98  A    between atoms: _232  and  _234
REMARK   99  A    between atoms: _234  and  _235
REMARK  100  A    between atoms: _234  and  _237
REMARK  101  A    between atoms: _240  and  _242
REMARK  102  A    between atoms: _242  and  _243
REMARK  103  A    between atoms: _242  and  _245
REMARK  104  A    between atoms: _245  and  _246
REMARK  105  A    between atoms: _251  and  _253
REMARK  106  A    between atoms: _253  and  _254
REMARK  107  A    between atoms: _253  and  _256
REMARK  108  A    between atoms: _256  and  _257
REMARK  109  A    between atoms: _260  and  _262
REMARK  110  A    between atoms: _262  and  _263
REMARK  111  A    between atoms: _262  and  _265
REMARK  112  A    between atoms: _265  and  _266
REMARK  113  A    between atoms: _269  and  _271
REMARK  114  A    between atoms: _271  and  _272
REMARK  115  A    between atoms: _274  and  _276
REMARK  116  A    between atoms: _276  and  _277
REMARK  117  A    between atoms: _276  and  _279
REMARK  118  A    between atoms: _279  and  _280
REMARK  119  A    between atoms: _280  and  _281
REMARK  120  A    between atoms: _281  and  _282
REMARK  121  A    between atoms: _291  and  _293
REMARK  122  A    between atoms: _293  and  _294
REMARK  123  A    between atoms: _293  and  _296
REMARK  124  A    between atoms: _296  and  _297
REMARK  125  A    between atoms: _302  and  _304
REMARK  126  A    between atoms: _304  and  _305
REMARK  127  A    between atoms: _304  and  _307
REMARK  128  A    between atoms: _307  and  _308
REMARK  129  A    between atoms: _308  and  _309
REMARK  130  A    between atoms: _309  and  _310
REMARK  131  A    between atoms: _320  and  _321
REMARK  132  A    between atoms: _326  and  _328
REMARK  133  A    between atoms: _328  and  _329
REMARK  134  A    between atoms: _328  and  _331
REMARK  135  A    between atoms: _331  and  _332
REMARK  136  A    between atoms: _335  and  _337
REMARK  137  A    between atoms: _337  and  _338
REMARK  138  A    between atoms: _337  and  _340
REMARK  139  A    between atoms: _340  and  _341
REMARK  140  A    between atoms: _344  and  _346
REMARK  141  A    between atoms: _346  and  _347
REMARK  142  A    between atoms: _346  and  _349
REMARK  143  A    between atoms: _349  and  _350
REMARK  144  A    between atoms: _353  and  _355
REMARK  145  A    between atoms: _355  and  _356
REMARK  146  A    between atoms: _355  and  _358
REMARK  147  A    between atoms: _358  and  _359
REMARK  148  A    between atoms: _362  and  _364
REMARK  149  A    between atoms: _364  and  _365
REMARK  150  A    between atoms: _364  and  _367
REMARK  151  A    between atoms: _367  and  _368
REMARK  152  A    between atoms: _371  and  _373
REMARK  153  A    between atoms: _373  and  _374
REMARK  154  A    between atoms: _376  and  _378
REMARK  155  A    between atoms: _378  and  _379
REMARK  156  A    between atoms: _382  and  _384
REMARK  157  A    between atoms: _384  and  _385
REMARK  158  A    between atoms: _384  and  _387
REMARK  159  A    between atoms: _387  and  _388
REMARK  160  A    between atoms: _391  and  _393
REMARK  161  A    between atoms: _393  and  _394
REMARK  162  A    between atoms: _393  and  _396
REMARK  163  A    between atoms: _396  and  _397
REMARK  164  A    between atoms: _400  and  _402
REMARK  165  A    between atoms: _402  and  _403
REMARK  166  A    between atoms: _402  and  _405
REMARK  167  A    between atoms: _405  and  _406
REMARK  168  A    between atoms: _409  and  _411
REMARK  169  A    between atoms: _411  and  _412
REMARK  170  A    between atoms: _411  and  _414
REMARK  171  A    between atoms: _417  and  _419
REMARK  172  A    between atoms: _419  and  _420
REMARK  173  A    between atoms: _419  and  _422
REMARK  174  A    between atoms: _422  and  _423
REMARK  175  A    between atoms: _426  and  _428
REMARK  176  A    between atoms: _428  and  _429
REMARK  177  A    between atoms: _428  and  _431
REMARK  178  A    between atoms: _431  and  _432
REMARK  179  A    between atoms: _432  and  _433
REMARK  180  A    between atoms: _433  and  _434
REMARK  181  A    between atoms: _434  and  _435
REMARK  182  A    between atoms: _439  and  _441
REMARK  183  A    between atoms: _441  and  _442
REMARK  184  A    between atoms: _441  and  _444
REMARK  185  A    between atoms: _444  and  _445
REMARK  186  A    between atoms: _448  and  _450
REMARK  187  A    between atoms: _450  and  _451
REMARK  188  A    between atoms: _453  and  _455
REMARK  189  A    between atoms: _455  and  _456
REMARK  190  A    between atoms: _458  and  _460
REMARK  191  A    between atoms: _460  and  _461
REMARK  192  A    between atoms: _460  and  _463
REMARK  193  A    between atoms: _463  and  _464
REMARK  194  A    between atoms: _467  and  _469
REMARK  195  A    between atoms: _469  and  _470
REMARK  196  A    between atoms: _472  and  _474
REMARK  197  A    between atoms: _474  and  _475
REMARK  198  A    between atoms: _477  and  _479
REMARK  199  A    between atoms: _479  and  _480
REMARK  200  A    between atoms: _479  and  _482
REMARK  201  A    between atoms: _482  and  _483
REMARK  202  A    between atoms: _489  and  _491
REMARK  203  A    between atoms: _491  and  _492
REMARK  204  A    between atoms: _491  and  _494
REMARK  205  A    between atoms: _494  and  _495
REMARK  206  A    between atoms: _498  and  _500
REMARK  207  A    between atoms: _500  and  _501
REMARK  208  A    between atoms: _500  and  _503
REMARK  209  A    between atoms: _506  and  _508
REMARK  210  A    between atoms: _508  and  _509
REMARK  211  A    between atoms: _508  and  _511
REMARK  212  A    between atoms: _511  and  _512
REMARK  213  A    between atoms: _516  and  _517
REMARK  214  A    between atoms: _522  and  _524
REMARK  215  A    between atoms: _524  and  _525
REMARK  216  A    between atoms: _524  and  _527
REMARK  217  A    between atoms: _527  and  _528
REMARK  218  A    between atoms: _532  and  _533
REMARK  219  A    between atoms: _538  and  _540
REMARK  220  A    between atoms: _540  and  _541
REMARK  221  A    between atoms: _540  and  _543
REMARK  222  A    between atoms: _546  and  _548
REMARK  223  A    between atoms: _548  and  _549
REMARK  224  A    between atoms: _548  and  _551
REMARK  225  A    between atoms: _551  and  _552
REMARK  226  A    between atoms: _557  and  _559
REMARK  227  A    between atoms: _559  and  _560
REMARK  228  A    between atoms: _559  and  _562
REMARK  229  A    between atoms: _562  and  _563
REMARK  230  A    between atoms: _566  and  _568
REMARK  231  A    between atoms: _568  and  _569
REMARK  232  A    between atoms: _568  and  _571
REMARK  233  A    between atoms: _571  and  _572
REMARK  234  A    between atoms: _575  and  _577
REMARK  235  A    between atoms: _577  and  _578
REMARK  236  A    between atoms: _580  and  _582
REMARK  237  A    between atoms: _582  and  _583
REMARK  238  A    between atoms: _582  and  _585
REMARK  239  A    between atoms: _585  and  _586
REMARK  240  A    between atoms: _586  and  _587
REMARK  241  A    between atoms: _587  and  _588
REMARK                            x       y       z     vdW  Elec       q    Type
REMARK                         _______ _______ _______ _____ _____    ______ ____
ROOT
ATOM      1  O   HOH     1     -14.639  27.097 -11.374  0.00  0.00    +0.000 OA
ENDROOT
TORSDOF 0
REMARK  Name = ../refined-set-2016/2qnq/2qnq_pocket.pdb
REMARK  241 active torsions:
REMARK  status: ('A' for Active; 'I' for Inactive)
REMARK    1  A    between atoms: _1  and  _3
REMARK    2  A    between atoms: _3  and  _4
REMARK    3  A    between atoms: _3  and  _6
REMARK    4  A    between atoms: _6  and  _7
REMARK    5  A    between atoms: _7  and  _8
REMARK    6  A    between atoms: _8  and  _9
REMARK    7  A    between atoms: _18  and  _20
REMARK    8  A    between atoms: _20  and  _21
REMARK    9  A    between atoms: _20  and  _23
REMARK   10  A    between atoms: _23  and  _24
REMARK   11  A    between atoms: _27  and  _29
REMARK   12  A    between atoms: _29  and  _30
REMARK   13  A    between atoms: _29  and  _32
REMARK   14  A    between atoms: _32  and  _33
REMARK   15  A    between atoms: _36  and  _38
REMARK   16  A    between atoms: _38  and  _39
REMARK   17  A    between atoms: _38  and  _41
REMARK   18  A    between atoms: _41  and  _42
REMARK   19  A    between atoms: _45  and  _47
REMARK   20  A    between atoms: _47  and  _48
REMARK   21  A    between atoms: _47  and  _50
REMARK   22  A    between atoms: _50  and  _51
REMARK   23  A    between atoms: _54  and  _56
REMARK   24  A    between atoms: _56  and  _57
REMARK   25  A    between atoms: _56  and  _59
REMARK   26  A    between atoms: _59  and  _60
REMARK   27  A    between atoms: _63  and  _65
REMARK   28  A    between atoms: _65  and  _66
REMARK   29  A    between atoms: _68  and  _70
REMARK   30  A    between atoms: _70  and  _71
REMARK   31  A    between atoms: _74  and  _76
REMARK   32  A    between atoms: _76  and  _77
REMARK   33  A    between atoms: _76  and  _79
REMARK   34  A    between atoms: _79  and  _80
REMARK   35  A    between atoms: _83  and  _85
REMARK   36  A    between atoms: _85  and  _86
REMARK   37  A    between atoms: _85  and  _88
REMARK   38  A    between atoms: _88  and  _89
REMARK   39  A    between atoms: _92  and  _94
REMARK   40  A    between atoms: _94  and  _95
REMARK   41  A    between atoms: _94  and  _97
REMARK   42  A    between atoms: _97  and  _98
REMARK   43  A    between atoms: _101  and  _103
REMARK   44  A    between atoms: _103  and  _104
REMARK   45  A    between atoms: _103  and  _106
REMARK   46  A    between atoms: _109  and  _111
REMARK   47  A    between atoms: _111  and  _112
REMARK   48  A    between atoms: _111  and  _114
REMARK   49  A    between atoms: _114  and  _115
REMARK   50  A    between atoms: _118  and  _120
REMARK   51  A    between atoms: _120  and  _121
REMARK   52  A    between atoms: _120  and  _123
REMARK   53  A    between atoms: _123  and  _124
REMARK   54  A    between atoms: _124  and  _125
REMARK   55  A    between atoms: _125  and  _126
REMARK   56  A    between atoms: _126  and  _127
REMARK   57  A    between atoms: _131  and  _133
REMARK   58  A    between atoms: _133  and  _134
REMARK   59  A    between atoms: _133  and  _136
REMARK   60  A    between atoms: _136  and  _137
REMARK   61  A    between atoms: _137  and  _138
REMARK   62  A    between atoms: _140  and  _142
REMARK   63  A    between atoms: _142  and  _143
REMARK   64  A    between atoms: _142  and  _145
REMARK   65  A    between atoms: _145  and  _146
REMARK   66  A    between atoms: _149  and  _151
REMARK   67  A    between atoms: _151  and  _152
REMARK   68  A    between atoms: _154  and  _156
REMARK   69  A    between atoms: _156  and  _157
REMARK   70  A    between atoms: _159  and  _161
REMARK   71  A    between atoms: _161  and  _162
REMARK   72  A    between atoms: _161  and  _164
REMARK   73  A    between atoms: _164  and  _165
REMARK   74  A    between atoms: _168  and  _170
REMARK   75  A    between atoms: _170  and  _171
REMARK   76  A    between atoms: _173  and  _175
REMARK   77  A    between atoms: _175  and  _176
REMARK   78  A    between atoms: _178  and  _180
REMARK   79  A    between atoms: _180  and  _181
REMARK   80  A    between atoms: _180  and  _183
REMARK   81  A    between atoms: _183  and  _184
REMARK   82  A    between atoms: _190  and  _192
REMARK   83  A    between atoms: _192  and  _193
REMARK   84  A    between atoms: _192  and  _195
REMARK   85  A    between atoms: _195  and  _196
REMARK   86  A    between atoms: _199  and  _201
REMARK   87  A    between atoms: _201  and  _202
REMARK   88  A    between atoms: _201  and  _204
REMARK   89  A    between atoms: _207  and  _209
REMARK   90  A    between atoms: _209  and  _210
REMARK   91  A    between atoms: _209  and  _212
REMARK   92  A    between atoms: _212  and  _213
REMARK   93  A    between atoms: _216  and  _218
REMARK   94  A    between atoms: _218  and  _219
REMARK   95  A    between atoms: _218  and  _221
REMARK   96  A    between atoms: _221  and  _222
REMARK   97  A    between atoms: _226  and  _227
REMARK   98  A    between atoms: _232  and  _234
REMARK   99  A    between atoms: _234  and  _235
REMARK  100  A    between atoms: _234  and  _237
REMARK  101  A    between atoms: _240  and  _242
REMARK  102  A    between atoms: _242  and  _243
REMARK  103  A    between atoms: _242  and  _245
REMARK  104  A    between atoms: _245  and  _246
REMARK  105  A    between atoms: _251  and  _253
REMARK  106  A    between atoms: _253  and  _254
REMARK  107  A    between atoms: _253  and  _256
REMARK  108  A    between atoms: _256  and  _257
REMARK  109  A    between atoms: _260  and  _262
REMARK  110  A    between atoms: _262  and  _263
REMARK  111  A    between atoms: _262  and  _265
REMARK  112  A    between atoms: _265  and  _266
REMARK  113  A    between atoms: _269  and  _271
REMARK  114  A    between atoms: _271  and  _272
REMARK  115  A    between atoms: _274  and  _276
REMARK  116  A    between atoms: _276  and  _277
REMARK  117  A    between atoms: _276  and  _279
REMARK  118  A    between atoms: _279  and  _280
REMARK  119  A    between atoms: _280  and  _281
REMARK  120  A    between atoms: _281  and  _282
REMARK  121  A    between atoms: _291  and  _293
REMARK  122  A    between atoms: _293  and  _294
REMARK  123  A    between atoms: _293  and  _296
REMARK  124  A    between atoms: _296  and  _297
REMARK  125  A    between atoms: _302  and  _304
REMARK  126  A    between atoms: _304  and  _305
REMARK  127  A    between atoms: _304  and  _307
REMARK  128  A    between atoms: _307  and  _308
REMARK  129  A    between atoms: _308  and  _309
REMARK  130  A    between atoms: _309  and  _310
REMARK  131  A    between atoms: _320  and  _321
REMARK  132  A    between atoms: _326  and  _328
REMARK  133  A    between atoms: _328  and  _329
REMARK  134  A    between atoms: _328  and  _331
REMARK  135  A    between atoms: _331  and  _332
REMARK  136  A    between atoms: _335  and  _337
REMARK  137  A    between atoms: _337  and  _338
REMARK  138  A    between atoms: _337  and  _340
REMARK  139  A    between atoms: _340  and  _341
REMARK  140  A    between atoms: _344  and  _346
REMARK  141  A    between atoms: _346  and  _347
REMARK  142  A    between atoms: _346  and  _349
REMARK  143  A    between atoms: _349  and  _350
REMARK  144  A    between atoms: _353  and  _355
REMARK  145  A    between atoms: _355  and  _356
REMARK  146  A    between atoms: _355  and  _358
REMARK  147  A    between atoms: _358  and  _359
REMARK  148  A    between atoms: _362  and  _364
REMARK  149  A    between atoms: _364  and  _365
REMARK  150  A    between atoms: _364  and  _367
REMARK  151  A    between atoms: _367  and  _368
REMARK  152  A    between atoms: _371  and  _373
REMARK  153  A    between atoms: _373  and  _374
REMARK  154  A    between atoms: _376  and  _378
REMARK  155  A    between atoms: _378  and  _379
REMARK  156  A    between atoms: _382  and  _384
REMARK  157  A    between atoms: _384  and  _385
REMARK  158  A    between atoms: _384  and  _387
REMARK  159  A    between atoms: _387  and  _388
REMARK  160  A    between atoms: _391  and  _393
REMARK  161  A    between atoms: _393  and  _394
REMARK  162  A    between atoms: _393  and  _396
REMARK  163  A    between atoms: _396  and  _397
REMARK  164  A    between atoms: _400  and  _402
REMARK  165  A    between atoms: _402  and  _403
REMARK  166  A    between atoms: _402  and  _405
REMARK  167  A    between atoms: _405  and  _406
REMARK  168  A    between atoms: _409  and  _411
REMARK  169  A    between atoms: _411  and  _412
REMARK  170  A    between atoms: _411  and  _414
REMARK  171  A    between atoms: _417  and  _419
REMARK  172  A    between atoms: _419  and  _420
REMARK  173  A    between atoms: _419  and  _422
REMARK  174  A    between atoms: _422  and  _423
REMARK  175  A    between atoms: _426  and  _428
REMARK  176  A    between atoms: _428  and  _429
REMARK  177  A    between atoms: _428  and  _431
REMARK  178  A    between atoms: _431  and  _432
REMARK  179  A    between atoms: _432  and  _433
REMARK  180  A    between atoms: _433  and  _434
REMARK  181  A    between atoms: _434  and  _435
REMARK  182  A    between atoms: _439  and  _441
REMARK  183  A    between atoms: _441  and  _442
REMARK  184  A    between atoms: _441  and  _444
REMARK  185  A    between atoms: _444  and  _445
REMARK  186  A    between atoms: _448  and  _450
REMARK  187  A    between atoms: _450  and  _451
REMARK  188  A    between atoms: _453  and  _455
REMARK  189  A    between atoms: _455  and  _456
REMARK  190  A    between atoms: _458  and  _460
REMARK  191  A    between atoms: _460  and  _461
REMARK  192  A    between atoms: _460  and  _463
REMARK  193  A    between atoms: _463  and  _464
REMARK  194  A    between atoms: _467  and  _469
REMARK  195  A    between atoms: _469  and  _470
REMARK  196  A    between atoms: _472  and  _474
REMARK  197  A    between atoms: _474  and  _475
REMARK  198  A    between atoms: _477  and  _479
REMARK  199  A    between atoms: _479  and  _480
REMARK  200  A    between atoms: _479  and  _482
REMARK  201  A    between atoms: _482  and  _483
REMARK  202  A    between atoms: _489  and  _491
REMARK  203  A    between atoms: _491  and  _492
REMARK  204  A    between atoms: _491  and  _494
REMARK  205  A    between atoms: _494  and  _495
REMARK  206  A    between atoms: _498  and  _500
REMARK  207  A    between atoms: _500  and  _501
REMARK  208  A    between atoms: _500  and  _503
REMARK  209  A    between atoms: _506  and  _508
REMARK  210  A    between atoms: _508  and  _509
REMARK  211  A    between atoms: _508  and  _511
REMARK  212  A    between atoms: _511  and  _512
REMARK  213  A    between atoms: _516  and  _517
REMARK  214  A    between atoms: _522  and  _524
REMARK  215  A    between atoms: _524  and  _525
REMARK  216  A    between atoms: _524  and  _527
REMARK  217  A    between atoms: _527  and  _528
REMARK  218  A    between atoms: _532  and  _533
REMARK  219  A    between atoms: _538  and  _540
REMARK  220  A    between atoms: _540  and  _541
REMARK  221  A    between atoms: _540  and  _543
REMARK  222  A    between atoms: _546  and  _548
REMARK  223  A    between atoms: _548  and  _549
REMARK  224  A    between atoms: _548  and  _551
REMARK  225  A    between atoms: _551  and  _552
REMARK  226  A    between atoms: _557  and  _559
REMARK  227  A    between atoms: _559  and  _560
REMARK  228  A    between atoms: _559  and  _562
REMARK  229  A    between atoms: _562  and  _563
REMARK  230  A    between atoms: _566  and  _568
REMARK  231  A    between atoms: _568  and  _569
REMARK  232  A    between atoms: _568  and  _571
REMARK  233  A    between atoms: _571  and  _572
REMARK  234  A    between atoms: _575  and  _577
REMARK  235  A    between atoms: _577  and  _578
REMARK  236  A    between atoms: _580  and  _582
REMARK  237  A    between atoms: _582  and  _583
REMARK  238  A    between atoms: _582  and  _585
REMARK  239  A    between atoms: _585  and  _586
REMARK  240  A    between atoms: _586  and  _587
REMARK  241  A    between atoms: _587  and  _588
REMARK                            x       y       z     vdW  Elec       q    Type
REMARK                         _______ _______ _______ _____ _____    ______ ____
ROOT
ATOM      1  O   HOH     1     -23.528  14.929   3.147  0.00  0.00    +0.000 OA
ENDROOT
TORSDOF 0
REMARK  Name = ../refined-set-2016/2qnq/2qnq_pocket.pdb
REMARK  241 active torsions:
REMARK  status: ('A' for Active; 'I' for Inactive)
REMARK    1  A    between atoms: _1  and  _3
REMARK    2  A    between atoms: _3  and  _4
REMARK    3  A    between atoms: _3  and  _6
REMARK    4  A    between atoms: _6  and  _7
REMARK    5  A    between atoms: _7  and  _8
REMARK    6  A    between atoms: _8  and  _9
REMARK    7  A    between atoms: _18  and  _20
REMARK    8  A    between atoms: _20  and  _21
REMARK    9  A    between atoms: _20  and  _23
REMARK   10  A    between atoms: _23  and  _24
REMARK   11  A    between atoms: _27  and  _29
REMARK   12  A    between atoms: _29  and  _30
REMARK   13  A    between atoms: _29  and  _32
REMARK   14  A    between atoms: _32  and  _33
REMARK   15  A    between atoms: _36  and  _38
REMARK   16  A    between atoms: _38  and  _39
REMARK   17  A    between atoms: _38  and  _41
REMARK   18  A    between atoms: _41  and  _42
REMARK   19  A    between atoms: _45  and  _47
REMARK   20  A    between atoms: _47  and  _48
REMARK   21  A    between atoms: _47  and  _50
REMARK   22  A    between atoms: _50  and  _51
REMARK   23  A    between atoms: _54  and  _56
REMARK   24  A    between atoms: _56  and  _57
REMARK   25  A    between atoms: _56  and  _59
REMARK   26  A    between atoms: _59  and  _60
REMARK   27  A    between atoms: _63  and  _65
REMARK   28  A    between atoms: _65  and  _66
REMARK   29  A    between atoms: _68  and  _70
REMARK   30  A    between atoms: _70  and  _71
REMARK   31  A    between atoms: _74  and  _76
REMARK   32  A    between atoms: _76  and  _77
REMARK   33  A    between atoms: _76  and  _79
REMARK   34  A    between atoms: _79  and  _80
REMARK   35  A    between atoms: _83  and  _85
REMARK   36  A    between atoms: _85  and  _86
REMARK   37  A    between atoms: _85  and  _88
REMARK   38  A    between atoms: _88  and  _89
REMARK   39  A    between atoms: _92  and  _94
REMARK   40  A    between atoms: _94  and  _95
REMARK   41  A    between atoms: _94  and  _97
REMARK   42  A    between atoms: _97  and  _98
REMARK   43  A    between atoms: _101  and  _103
REMARK   44  A    between atoms: _103  and  _104
REMARK   45  A    between atoms: _103  and  _106
REMARK   46  A    between atoms: _109  and  _111
REMARK   47  A    between atoms: _111  and  _112
REMARK   48  A    between atoms: _111  and  _114
REMARK   49  A    between atoms: _114  and  _115
REMARK   50  A    between atoms: _118  and  _120
REMARK   51  A    between atoms: _120  and  _121
REMARK   52  A    between atoms: _120  and  _123
REMARK   53  A    between atoms: _123  and  _124
REMARK   54  A    between atoms: _124  and  _125
REMARK   55  A    between atoms: _125  and  _126
REMARK   56  A    between atoms: _126  and  _127
REMARK   57  A    between atoms: _131  and  _133
REMARK   58  A    between atoms: _133  and  _134
REMARK   59  A    between atoms: _133  and  _136
REMARK   60  A    between atoms: _136  and  _137
REMARK   61  A    between atoms: _137  and  _138
REMARK   62  A    between atoms: _140  and  _142
REMARK   63  A    between atoms: _142  and  _143
REMARK   64  A    between atoms: _142  and  _145
REMARK   65  A    between atoms: _145  and  _146
REMARK   66  A    between atoms: _149  and  _151
REMARK   67  A    between atoms: _151  and  _152
REMARK   68  A    between atoms: _154  and  _156
REMARK   69  A    between atoms: _156  and  _157
REMARK   70  A    between atoms: _159  and  _161
REMARK   71  A    between atoms: _161  and  _162
REMARK   72  A    between atoms: _161  and  _164
REMARK   73  A    between atoms: _164  and  _165
REMARK   74  A    between atoms: _168  and  _170
REMARK   75  A    between atoms: _170  and  _171
REMARK   76  A    between atoms: _173  and  _175
REMARK   77  A    between atoms: _175  and  _176
REMARK   78  A    between atoms: _178  and  _180
REMARK   79  A    between atoms: _180  and  _181
REMARK   80  A    between atoms: _180  and  _183
REMARK   81  A    between atoms: _183  and  _184
REMARK   82  A    between atoms: _190  and  _192
REMARK   83  A    between atoms: _192  and  _193
REMARK   84  A    between atoms: _192  and  _195
REMARK   85  A    between atoms: _195  and  _196
REMARK   86  A    between atoms: _199  and  _201
REMARK   87  A    between atoms: _201  and  _202
REMARK   88  A    between atoms: _201  and  _204
REMARK   89  A    between atoms: _207  and  _209
REMARK   90  A    between atoms: _209  and  _210
REMARK   91  A    between atoms: _209  and  _212
REMARK   92  A    between atoms: _212  and  _213
REMARK   93  A    between atoms: _216  and  _218
REMARK   94  A    between atoms: _218  and  _219
REMARK   95  A    between atoms: _218  and  _221
REMARK   96  A    between atoms: _221  and  _222
REMARK   97  A    between atoms: _226  and  _227
REMARK   98  A    between atoms: _232  and  _234
REMARK   99  A    between atoms: _234  and  _235
REMARK  100  A    between atoms: _234  and  _237
REMARK  101  A    between atoms: _240  and  _242
REMARK  102  A    between atoms: _242  and  _243
REMARK  103  A    between atoms: _242  and  _245
REMARK  104  A    between atoms: _245  and  _246
REMARK  105  A    between atoms: _251  and  _253
REMARK  106  A    between atoms: _253  and  _254
REMARK  107  A    between atoms: _253  and  _256
REMARK  108  A    between atoms: _256  and  _257
REMARK  109  A    between atoms: _260  and  _262
REMARK  110  A    between atoms: _262  and  _263
REMARK  111  A    between atoms: _262  and  _265
REMARK  112  A    between atoms: _265  and  _266
REMARK  113  A    between atoms: _269  and  _271
REMARK  114  A    between atoms: _271  and  _272
REMARK  115  A    between atoms: _274  and  _276
REMARK  116  A    between atoms: _276  and  _277
REMARK  117  A    between atoms: _276  and  _279
REMARK  118  A    between atoms: _279  and  _280
REMARK  119  A    between atoms: _280  and  _281
REMARK  120  A    between atoms: _281  and  _282
REMARK  121  A    between atoms: _291  and  _293
REMARK  122  A    between atoms: _293  and  _294
REMARK  123  A    between atoms: _293  and  _296
REMARK  124  A    between atoms: _296  and  _297
REMARK  125  A    between atoms: _302  and  _304
REMARK  126  A    between atoms: _304  and  _305
REMARK  127  A    between atoms: _304  and  _307
REMARK  128  A    between atoms: _307  and  _308
REMARK  129  A    between atoms: _308  and  _309
REMARK  130  A    between atoms: _309  and  _310
REMARK  131  A    between atoms: _320  and  _321
REMARK  132  A    between atoms: _326  and  _328
REMARK  133  A    between atoms: _328  and  _329
REMARK  134  A    between atoms: _328  and  _331
REMARK  135  A    between atoms: _331  and  _332
REMARK  136  A    between atoms: _335  and  _337
REMARK  137  A    between atoms: _337  and  _338
REMARK  138  A    between atoms: _337  and  _340
REMARK  139  A    between atoms: _340  and  _341
REMARK  140  A    between atoms: _344  and  _346
REMARK  141  A    between atoms: _346  and  _347
REMARK  142  A    between atoms: _346  and  _349
REMARK  143  A    between atoms: _349  and  _350
REMARK  144  A    between atoms: _353  and  _355
REMARK  145  A    between atoms: _355  and  _356
REMARK  146  A    between atoms: _355  and  _358
REMARK  147  A    between atoms: _358  and  _359
REMARK  148  A    between atoms: _362  and  _364
REMARK  149  A    between atoms: _364  and  _365
REMARK  150  A    between atoms: _364  and  _367
REMARK  151  A    between atoms: _367  and  _368
REMARK  152  A    between atoms: _371  and  _373
REMARK  153  A    between atoms: _373  and  _374
REMARK  154  A    between atoms: _376  and  _378
REMARK  155  A    between atoms: _378  and  _379
REMARK  156  A    between atoms: _382  and  _384
REMARK  157  A    between atoms: _384  and  _385
REMARK  158  A    between atoms: _384  and  _387
REMARK  159  A    between atoms: _387  and  _388
REMARK  160  A    between atoms: _391  and  _393
REMARK  161  A    between atoms: _393  and  _394
REMARK  162  A    between atoms: _393  and  _396
REMARK  163  A    between atoms: _396  and  _397
REMARK  164  A    between atoms: _400  and  _402
REMARK  165  A    between atoms: _402  and  _403
REMARK  166  A    between atoms: _402  and  _405
REMARK  167  A    between atoms: _405  and  _406
REMARK  168  A    between atoms: _409  and  _411
REMARK  169  A    between atoms: _411  and  _412
REMARK  170  A    between atoms: _411  and  _414
REMARK  171  A    between atoms: _417  and  _419
REMARK  172  A    between atoms: _419  and  _420
REMARK  173  A    between atoms: _419  and  _422
REMARK  174  A    between atoms: _422  and  _423
REMARK  175  A    between atoms: _426  and  _428
REMARK  176  A    between atoms: _428  and  _429
REMARK  177  A    between atoms: _428  and  _431
REMARK  178  A    between atoms: _431  and  _432
REMARK  179  A    between atoms: _432  and  _433
REMARK  180  A    between atoms: _433  and  _434
REMARK  181  A    between atoms: _434  and  _435
REMARK  182  A    between atoms: _439  and  _441
REMARK  183  A    between atoms: _441  and  _442
REMARK  184  A    between atoms: _441  and  _444
REMARK  185  A    between atoms: _444  and  _445
REMARK  186  A    between atoms: _448  and  _450
REMARK  187  A    between atoms: _450  and  _451
REMARK  188  A    between atoms: _453  and  _455
REMARK  189  A    between atoms: _455  and  _456
REMARK  190  A    between atoms: _458  and  _460
REMARK  191  A    between atoms: _460  and  _461
REMARK  192  A    between atoms: _460  and  _463
REMARK  193  A    between atoms: _463  and  _464
REMARK  194  A    between atoms: _467  and  _469
REMARK  195  A    between atoms: _469  and  _470
REMARK  196  A    between atoms: _472  and  _474
REMARK  197  A    between atoms: _474  and  _475
REMARK  198  A    between atoms: _477  and  _479
REMARK  199  A    between atoms: _479  and  _480
REMARK  200  A    between atoms: _479  and  _482
REMARK  201  A    between atoms: _482  and  _483
REMARK  202  A    between atoms: _489  and  _491
REMARK  203  A    between atoms: _491  and  _492
REMARK  204  A    between atoms: _491  and  _494
REMARK  205  A    between atoms: _494  and  _495
REMARK  206  A    between atoms: _498  and  _500
REMARK  207  A    between atoms: _500  and  _501
REMARK  208  A    between atoms: _500  and  _503
REMARK  209  A    between atoms: _506  and  _508
REMARK  210  A    between atoms: _508  and  _509
REMARK  211  A    between atoms: _508  and  _511
REMARK  212  A    between atoms: _511  and  _512
REMARK  213  A    between atoms: _516  and  _517
REMARK  214  A    between atoms: _522  and  _524
REMARK  215  A    between atoms: _524  and  _525
REMARK  216  A    between atoms: _524  and  _527
REMARK  217  A    between atoms: _527  and  _528
REMARK  218  A    between atoms: _532  and  _533
REMARK  219  A    between atoms: _538  and  _540
REMARK  220  A    between atoms: _540  and  _541
REMARK  221  A    between atoms: _540  and  _543
REMARK  222  A    between atoms: _546  and  _548
REMARK  223  A    between atoms: _548  and  _549
REMARK  224  A    between atoms: _548  and  _551
REMARK  225  A    between atoms: _551  and  _552
REMARK  226  A    between atoms: _557  and  _559
REMARK  227  A    between atoms: _559  and  _560
REMARK  228  A    between atoms: _559  and  _562
REMARK  229  A    between atoms: _562  and  _563
REMARK  230  A    between atoms: _566  and  _568
REMARK  231  A    between atoms: _568  and  _569
REMARK  232  A    between atoms: _568  and  _571
REMARK  233  A    between atoms: _571  and  _572
REMARK  234  A    between atoms: _575  and  _577
REMARK  235  A    between atoms: _577  and  _578
REMARK  236  A    between atoms: _580  and  _582
REMARK  237  A    between atoms: _582  and  _583
REMARK  238  A    between atoms: _582  and  _585
REMARK  239  A    between atoms: _585  and  _586
REMARK  240  A    between atoms: _586  and  _587
REMARK  241  A    between atoms: _587  and  _588
REMARK                            x       y       z     vdW  Elec       q    Type
REMARK                         _______ _______ _______ _____ _____    ______ ____
ROOT
ATOM      1  O   HOH     1     -11.104  25.448  -2.509  0.00  0.00    +0.000 OA
ENDROOT
TORSDOF 0
