REMARK  Name = ../refined-set-2016/1gwv/1gwv_pocket.pdb
REMARK  141 active torsions:
REMARK  status: ('A' for Active; 'I' for Inactive)
REMARK    1  A    between atoms: _1  and  _3
REMARK    2  A    between atoms: _3  and  _4
REMARK    3  A    between atoms: _3  and  _6
REMARK    4  A    between atoms: _6  and  _7
REMARK    5  A    between atoms: _17  and  _19
REMARK    6  A    between atoms: _19  and  _20
REMARK    7  A    between atoms: _19  and  _22
REMARK    8  A    between atoms: _22  and  _23
REMARK    9  A    between atoms: _23  and  _24
REMARK   10  A    between atoms: _24  and  _25
REMARK   11  A    between atoms: _34  and  _36
REMARK   12  A    between atoms: _36  and  _37
REMARK   13  A    between atoms: _36  and  _39
REMARK   14  A    between atoms: _39  and  _40
REMARK   15  A    between atoms: _40  and  _42
REMARK   16  A    between atoms: _42  and  MN_375
REMARK   17  A    between atoms: _43  and  _45
REMARK   18  A    between atoms: _45  and  _46
REMARK   19  A    between atoms: _45  and  _48
REMARK   20  A    between atoms: _48  and  _49
REMARK   21  A    between atoms: _49  and  _50
REMARK   22  A    between atoms: _50  and  MN_375
REMARK   23  A    between atoms: _52  and  _54
REMARK   24  A    between atoms: _54  and  _55
REMARK   25  A    between atoms: _54  and  _57
REMARK   26  A    between atoms: _57  and  _58
REMARK   27  A    between atoms: _58  and  _59
REMARK   28  A    between atoms: _64  and  _66
REMARK   29  A    between atoms: _66  and  _67
REMARK   30  A    between atoms: _70  and  _72
REMARK   31  A    between atoms: _72  and  _73
REMARK   32  A    between atoms: _72  and  _75
REMARK   33  A    between atoms: _75  and  _76
REMARK   34  A    between atoms: _86  and  _88
REMARK   35  A    between atoms: _88  and  _89
REMARK   36  A    between atoms: _88  and  _91
REMARK   37  A    between atoms: _91  and  _92
REMARK   38  A    between atoms: _102  and  _104
REMARK   39  A    between atoms: _104  and  _105
REMARK   40  A    between atoms: _104  and  _107
REMARK   41  A    between atoms: _107  and  _108
REMARK   42  A    between atoms: _111  and  _113
REMARK   43  A    between atoms: _113  and  _114
REMARK   44  A    between atoms: _113  and  _116
REMARK   45  A    between atoms: _116  and  _117
REMARK   46  A    between atoms: _123  and  _125
REMARK   47  A    between atoms: _125  and  _126
REMARK   48  A    between atoms: _125  and  _128
REMARK   49  A    between atoms: _128  and  _129
REMARK   50  A    between atoms: _132  and  _134
REMARK   51  A    between atoms: _134  and  _135
REMARK   52  A    between atoms: _134  and  _137
REMARK   53  A    between atoms: _137  and  _138
REMARK   54  A    between atoms: _143  and  _144
REMARK   55  A    between atoms: _146  and  _148
REMARK   56  A    between atoms: _148  and  _149
REMARK   57  A    between atoms: _148  and  _151
REMARK   58  A    between atoms: _151  and  _152
REMARK   59  A    between atoms: _157  and  _158
REMARK   60  A    between atoms: _160  and  _162
REMARK   61  A    between atoms: _162  and  _163
REMARK   62  A    between atoms: _162  and  _165
REMARK   63  A    between atoms: _165  and  _166
REMARK   64  A    between atoms: _171  and  _172
REMARK   65  A    between atoms: _174  and  _176
REMARK   66  A    between atoms: _176  and  _177
REMARK   67  A    between atoms: _176  and  _179
REMARK   68  A    between atoms: _179  and  _180
REMARK   69  A    between atoms: _185  and  _187
REMARK   70  A    between atoms: _187  and  _188
REMARK   71  A    between atoms: _191  and  _193
REMARK   72  A    between atoms: _193  and  _194
REMARK   73  A    between atoms: _197  and  _199
REMARK   74  A    between atoms: _199  and  _200
REMARK   75  A    between atoms: _199  and  _202
REMARK   76  A    between atoms: _202  and  _203
REMARK   77  A    between atoms: _203  and  _204
REMARK   78  A    between atoms: _209  and  _211
REMARK   79  A    between atoms: _211  and  _212
REMARK   80  A    between atoms: _211  and  _214
REMARK   81  A    between atoms: _214  and  _215
REMARK   82  A    between atoms: _225  and  _227
REMARK   83  A    between atoms: _227  and  _228
REMARK   84  A    between atoms: _227  and  _230
REMARK   85  A    between atoms: _230  and  _231
REMARK   86  A    between atoms: _236  and  _238
REMARK   87  A    between atoms: _238  and  _239
REMARK   88  A    between atoms: _238  and  _241
REMARK   89  A    between atoms: _241  and  _242
REMARK   90  A    between atoms: _242  and  _243
REMARK   91  A    between atoms: _246  and  _248
REMARK   92  A    between atoms: _248  and  _249
REMARK   93  A    between atoms: _248  and  _251
REMARK   94  A    between atoms: _251  and  _252
REMARK   95  A    between atoms: _254  and  _256
REMARK   96  A    between atoms: _256  and  _257
REMARK   97  A    between atoms: _256  and  _259
REMARK   98  A    between atoms: _259  and  _260
REMARK   99  A    between atoms: _265  and  _267
REMARK  100  A    between atoms: _267  and  _268
REMARK  101  A    between atoms: _267  and  _270
REMARK  102  A    between atoms: _270  and  _271
REMARK  103  A    between atoms: _274  and  _276
REMARK  104  A    between atoms: _276  and  _277
REMARK  105  A    between atoms: _276  and  _279
REMARK  106  A    between atoms: _279  and  _280
REMARK  107  A    between atoms: _285  and  _287
REMARK  108  A    between atoms: _287  and  _288
REMARK  109  A    between atoms: _287  and  _290
REMARK  110  A    between atoms: _290  and  _291
REMARK  111  A    between atoms: _294  and  _296
REMARK  112  A    between atoms: _296  and  _297
REMARK  113  A    between atoms: _296  and  _299
REMARK  114  A    between atoms: _299  and  _300
REMARK  115  A    between atoms: _310  and  _312
REMARK  116  A    between atoms: _312  and  _313
REMARK  117  A    between atoms: _312  and  _315
REMARK  118  A    between atoms: _315  and  _316
REMARK  119  A    between atoms: _316  and  _317
REMARK  120  A    between atoms: _322  and  _324
REMARK  121  A    between atoms: _324  and  _325
REMARK  122  A    between atoms: _324  and  _327
REMARK  123  A    between atoms: _327  and  _328
REMARK  124  A    between atoms: _331  and  _333
REMARK  125  A    between atoms: _333  and  _334
REMARK  126  A    between atoms: _333  and  _336
REMARK  127  A    between atoms: _336  and  _337
REMARK  128  A    between atoms: _337  and  _338
REMARK  129  A    between atoms: _338  and  _339
REMARK  130  A    between atoms: _339  and  _340
REMARK  131  A    between atoms: _344  and  _346
REMARK  132  A    between atoms: _346  and  _347
REMARK  133  A    between atoms: _346  and  _349
REMARK  134  A    between atoms: _349  and  _350
REMARK  135  A    between atoms: _355  and  _356
REMARK  136  A    between atoms: _358  and  _360
REMARK  137  A    between atoms: _360  and  _361
REMARK  138  A    between atoms: _360  and  _363
REMARK  139  A    between atoms: _363  and  _364
REMARK  140  A    between atoms: _364  and  _365
REMARK  141  A    between atoms: _365  and  _366
REMARK                            x       y       z     vdW  Elec       q    Type
REMARK                         _______ _______ _______ _____ _____    ______ ____
ROOT
ATOM      1  CG  TRP A   1       0.144  17.905  48.853  0.00  0.00    -0.002 A 
ATOM      2  CD2 TRP A   1       0.449  16.810  49.728  0.00  0.00    +0.013 A 
ATOM      3  CE2 TRP A   1       0.473  17.324  51.045  0.00  0.00    +0.056 A 
ATOM      4  CZ2 TRP A   1       0.741  16.519  52.162  0.00  0.00    +0.017 A 
ATOM      5  CH2 TRP A   1       0.987  15.186  51.937  0.00  0.00    +0.001 A 
ATOM      6  CZ3 TRP A   1       0.971  14.644  50.637  0.00  0.00    +0.000 A 
ATOM      7  NE1 TRP A   1       0.198  18.665  50.968  0.00  0.00    -0.352 N 
ATOM      8  HE1 TRP A   1       0.146  19.319  51.775  0.00  0.00    +0.166 HD
ATOM      9  CE3 TRP A   1       0.704  15.446  49.529  0.00  0.00    +0.001 A 
ATOM     10  CD1 TRP A   1       0.002  19.004  49.653  0.00  0.00    +0.068 A 
ENDROOT
BRANCH   1  11
ATOM     11  CB  TRP A   1      -0.010  17.851  47.358  0.00  0.00    +0.053 C 
BRANCH  11  12
ATOM     12  CA  TRP A   1      -1.386  17.379  46.849  0.00  0.00    +0.137 C 
BRANCH  12  13
ATOM     13  N   TRP A   1      -2.448  18.321  47.201  0.00  0.00    -0.239 NA
ATOM     14  H   TRP A   1      -2.214  19.203  47.700  0.00  0.00    +0.142 HD
ENDBRANCH  12  13
BRANCH  12  15
ATOM     15  C   TRP A   1      -1.694  15.983  47.402  0.00  0.00    +0.224 C 
ATOM     16  O   TRP A   1      -1.251  14.968  46.849  0.00  0.00    -0.287 OA
ENDBRANCH  12  15
ENDBRANCH  11  12
ENDBRANCH   1  11
TORSDOF 4
REMARK  Name = ../refined-set-2016/1gwv/1gwv_pocket.pdb
REMARK  141 active torsions:
REMARK  status: ('A' for Active; 'I' for Inactive)
REMARK    1  A    between atoms: _1  and  _3
REMARK    2  A    between atoms: _3  and  _4
REMARK    3  A    between atoms: _3  and  _6
REMARK    4  A    between atoms: _6  and  _7
REMARK    5  A    between atoms: _17  and  _19
REMARK    6  A    between atoms: _19  and  _20
REMARK    7  A    between atoms: _19  and  _22
REMARK    8  A    between atoms: _22  and  _23
REMARK    9  A    between atoms: _23  and  _24
REMARK   10  A    between atoms: _24  and  _25
REMARK   11  A    between atoms: _34  and  _36
REMARK   12  A    between atoms: _36  and  _37
REMARK   13  A    between atoms: _36  and  _39
REMARK   14  A    between atoms: _39  and  _40
REMARK   15  A    between atoms: _40  and  _42
REMARK   16  A    between atoms: _42  and  MN_375
REMARK   17  A    between atoms: _43  and  _45
REMARK   18  A    between atoms: _45  and  _46
REMARK   19  A    between atoms: _45  and  _48
REMARK   20  A    between atoms: _48  and  _49
REMARK   21  A    between atoms: _49  and  _50
REMARK   22  A    between atoms: _50  and  MN_375
REMARK   23  A    between atoms: _52  and  _54
REMARK   24  A    between atoms: _54  and  _55
REMARK   25  A    between atoms: _54  and  _57
REMARK   26  A    between atoms: _57  and  _58
REMARK   27  A    between atoms: _58  and  _59
REMARK   28  A    between atoms: _64  and  _66
REMARK   29  A    between atoms: _66  and  _67
REMARK   30  A    between atoms: _70  and  _72
REMARK   31  A    between atoms: _72  and  _73
REMARK   32  A    between atoms: _72  and  _75
REMARK   33  A    between atoms: _75  and  _76
REMARK   34  A    between atoms: _86  and  _88
REMARK   35  A    between atoms: _88  and  _89
REMARK   36  A    between atoms: _88  and  _91
REMARK   37  A    between atoms: _91  and  _92
REMARK   38  A    between atoms: _102  and  _104
REMARK   39  A    between atoms: _104  and  _105
REMARK   40  A    between atoms: _104  and  _107
REMARK   41  A    between atoms: _107  and  _108
REMARK   42  A    between atoms: _111  and  _113
REMARK   43  A    between atoms: _113  and  _114
REMARK   44  A    between atoms: _113  and  _116
REMARK   45  A    between atoms: _116  and  _117
REMARK   46  A    between atoms: _123  and  _125
REMARK   47  A    between atoms: _125  and  _126
REMARK   48  A    between atoms: _125  and  _128
REMARK   49  A    between atoms: _128  and  _129
REMARK   50  A    between atoms: _132  and  _134
REMARK   51  A    between atoms: _134  and  _135
REMARK   52  A    between atoms: _134  and  _137
REMARK   53  A    between atoms: _137  and  _138
REMARK   54  A    between atoms: _143  and  _144
REMARK   55  A    between atoms: _146  and  _148
REMARK   56  A    between atoms: _148  and  _149
REMARK   57  A    between atoms: _148  and  _151
REMARK   58  A    between atoms: _151  and  _152
REMARK   59  A    between atoms: _157  and  _158
REMARK   60  A    between atoms: _160  and  _162
REMARK   61  A    between atoms: _162  and  _163
REMARK   62  A    between atoms: _162  and  _165
REMARK   63  A    between atoms: _165  and  _166
REMARK   64  A    between atoms: _171  and  _172
REMARK   65  A    between atoms: _174  and  _176
REMARK   66  A    between atoms: _176  and  _177
REMARK   67  A    between atoms: _176  and  _179
REMARK   68  A    between atoms: _179  and  _180
REMARK   69  A    between atoms: _185  and  _187
REMARK   70  A    between atoms: _187  and  _188
REMARK   71  A    between atoms: _191  and  _193
REMARK   72  A    between atoms: _193  and  _194
REMARK   73  A    between atoms: _197  and  _199
REMARK   74  A    between atoms: _199  and  _200
REMARK   75  A    between atoms: _199  and  _202
REMARK   76  A    between atoms: _202  and  _203
REMARK   77  A    between atoms: _203  and  _204
REMARK   78  A    between atoms: _209  and  _211
REMARK   79  A    between atoms: _211  and  _212
REMARK   80  A    between atoms: _211  and  _214
REMARK   81  A    between atoms: _214  and  _215
REMARK   82  A    between atoms: _225  and  _227
REMARK   83  A    between atoms: _227  and  _228
REMARK   84  A    between atoms: _227  and  _230
REMARK   85  A    between atoms: _230  and  _231
REMARK   86  A    between atoms: _236  and  _238
REMARK   87  A    between atoms: _238  and  _239
REMARK   88  A    between atoms: _238  and  _241
REMARK   89  A    between atoms: _241  and  _242
REMARK   90  A    between atoms: _242  and  _243
REMARK   91  A    between atoms: _246  and  _248
REMARK   92  A    between atoms: _248  and  _249
REMARK   93  A    between atoms: _248  and  _251
REMARK   94  A    between atoms: _251  and  _252
REMARK   95  A    between atoms: _254  and  _256
REMARK   96  A    between atoms: _256  and  _257
REMARK   97  A    between atoms: _256  and  _259
REMARK   98  A    between atoms: _259  and  _260
REMARK   99  A    between atoms: _265  and  _267
REMARK  100  A    between atoms: _267  and  _268
REMARK  101  A    between atoms: _267  and  _270
REMARK  102  A    between atoms: _270  and  _271
REMARK  103  A    between atoms: _274  and  _276
REMARK  104  A    between atoms: _276  and  _277
REMARK  105  A    between atoms: _276  and  _279
REMARK  106  A    between atoms: _279  and  _280
REMARK  107  A    between atoms: _285  and  _287
REMARK  108  A    between atoms: _287  and  _288
REMARK  109  A    between atoms: _287  and  _290
REMARK  110  A    between atoms: _290  and  _291
REMARK  111  A    between atoms: _294  and  _296
REMARK  112  A    between atoms: _296  and  _297
REMARK  113  A    between atoms: _296  and  _299
REMARK  114  A    between atoms: _299  and  _300
REMARK  115  A    between atoms: _310  and  _312
REMARK  116  A    between atoms: _312  and  _313
REMARK  117  A    between atoms: _312  and  _315
REMARK  118  A    between atoms: _315  and  _316
REMARK  119  A    between atoms: _316  and  _317
REMARK  120  A    between atoms: _322  and  _324
REMARK  121  A    between atoms: _324  and  _325
REMARK  122  A    between atoms: _324  and  _327
REMARK  123  A    between atoms: _327  and  _328
REMARK  124  A    between atoms: _331  and  _333
REMARK  125  A    between atoms: _333  and  _334
REMARK  126  A    between atoms: _333  and  _336
REMARK  127  A    between atoms: _336  and  _337
REMARK  128  A    between atoms: _337  and  _338
REMARK  129  A    between atoms: _338  and  _339
REMARK  130  A    between atoms: _339  and  _340
REMARK  131  A    between atoms: _344  and  _346
REMARK  132  A    between atoms: _346  and  _347
REMARK  133  A    between atoms: _346  and  _349
REMARK  134  A    between atoms: _349  and  _350
REMARK  135  A    between atoms: _355  and  _356
REMARK  136  A    between atoms: _358  and  _360
REMARK  137  A    between atoms: _360  and  _361
REMARK  138  A    between atoms: _360  and  _363
REMARK  139  A    between atoms: _363  and  _364
REMARK  140  A    between atoms: _364  and  _365
REMARK  141  A    between atoms: _365  and  _366
REMARK                            x       y       z     vdW  Elec       q    Type
REMARK                         _______ _______ _______ _____ _____    ______ ____
ROOT
ATOM      1  NE  ARG A   1       0.917   8.629  43.669  0.00  0.00    -0.265 N 
ATOM      2  CZ  ARG A   1       1.938   8.072  44.317  0.00  0.00    +0.342 C 
ATOM      3  NH2 ARG A   1       1.888   7.930  45.634  0.00  0.00    -0.292 N 
ATOM      4 HH21 ARG A   1       1.052   8.254  46.161  0.00  0.00    +0.255 HD
ATOM      5 HH22 ARG A   1       2.685   7.495  46.141  0.00  0.00    +0.255 HD
ATOM      6  NH1 ARG A   1       3.002   7.641  43.653  0.00  0.00    -0.292 N 
ATOM      7 HH11 ARG A   1       3.795   7.207  44.167  0.00  0.00    +0.255 HD
ATOM      8 HH12 ARG A   1       3.043   7.737  42.618  0.00  0.00    +0.255 HD
ATOM      9  HE  ARG A   1       0.104   8.951  44.232  0.00  0.00    +0.259 HD
ENDROOT
BRANCH   1  10
ATOM     10  CD  ARG A   1       0.861   8.819  42.218  0.00  0.00    +0.174 C 
BRANCH  10  11
ATOM     11  CG  ARG A   1      -0.567   9.037  41.709  0.00  0.00    +0.045 C 
BRANCH  11  12
ATOM     12  CB  ARG A   1      -1.377   7.745  41.816  0.00  0.00    +0.029 C 
BRANCH  12  13
ATOM     13  CA  ARG A   1      -2.816   7.801  41.288  0.00  0.00    +0.133 C 
BRANCH  13  14
ATOM     14  N   ARG A   1      -3.648   8.673  42.114  0.00  0.00    -0.239 NA
ATOM     15  H   ARG A   1      -3.193   9.293  42.814  0.00  0.00    +0.142 HD
ENDBRANCH  13  14
BRANCH  13  16
ATOM     16  C   ARG A   1      -3.377   6.383  41.302  0.00  0.00    +0.224 C 
ATOM     17  O   ARG A   1      -3.365   5.688  40.283  0.00  0.00    -0.287 OA
ENDBRANCH  13  16
ENDBRANCH  12  13
ENDBRANCH  11  12
ENDBRANCH  10  11
ENDBRANCH   1  10
TORSDOF 6
REMARK  Name = ../refined-set-2016/1gwv/1gwv_pocket.pdb
REMARK  141 active torsions:
REMARK  status: ('A' for Active; 'I' for Inactive)
REMARK    1  A    between atoms: _1  and  _3
REMARK    2  A    between atoms: _3  and  _4
REMARK    3  A    between atoms: _3  and  _6
REMARK    4  A    between atoms: _6  and  _7
REMARK    5  A    between atoms: _17  and  _19
REMARK    6  A    between atoms: _19  and  _20
REMARK    7  A    between atoms: _19  and  _22
REMARK    8  A    between atoms: _22  and  _23
REMARK    9  A    between atoms: _23  and  _24
REMARK   10  A    between atoms: _24  and  _25
REMARK   11  A    between atoms: _34  and  _36
REMARK   12  A    between atoms: _36  and  _37
REMARK   13  A    between atoms: _36  and  _39
REMARK   14  A    between atoms: _39  and  _40
REMARK   15  A    between atoms: _40  and  _42
REMARK   16  A    between atoms: _42  and  MN_375
REMARK   17  A    between atoms: _43  and  _45
REMARK   18  A    between atoms: _45  and  _46
REMARK   19  A    between atoms: _45  and  _48
REMARK   20  A    between atoms: _48  and  _49
REMARK   21  A    between atoms: _49  and  _50
REMARK   22  A    between atoms: _50  and  MN_375
REMARK   23  A    between atoms: _52  and  _54
REMARK   24  A    between atoms: _54  and  _55
REMARK   25  A    between atoms: _54  and  _57
REMARK   26  A    between atoms: _57  and  _58
REMARK   27  A    between atoms: _58  and  _59
REMARK   28  A    between atoms: _64  and  _66
REMARK   29  A    between atoms: _66  and  _67
REMARK   30  A    between atoms: _70  and  _72
REMARK   31  A    between atoms: _72  and  _73
REMARK   32  A    between atoms: _72  and  _75
REMARK   33  A    between atoms: _75  and  _76
REMARK   34  A    between atoms: _86  and  _88
REMARK   35  A    between atoms: _88  and  _89
REMARK   36  A    between atoms: _88  and  _91
REMARK   37  A    between atoms: _91  and  _92
REMARK   38  A    between atoms: _102  and  _104
REMARK   39  A    between atoms: _104  and  _105
REMARK   40  A    between atoms: _104  and  _107
REMARK   41  A    between atoms: _107  and  _108
REMARK   42  A    between atoms: _111  and  _113
REMARK   43  A    between atoms: _113  and  _114
REMARK   44  A    between atoms: _113  and  _116
REMARK   45  A    between atoms: _116  and  _117
REMARK   46  A    between atoms: _123  and  _125
REMARK   47  A    between atoms: _125  and  _126
REMARK   48  A    between atoms: _125  and  _128
REMARK   49  A    between atoms: _128  and  _129
REMARK   50  A    between atoms: _132  and  _134
REMARK   51  A    between atoms: _134  and  _135
REMARK   52  A    between atoms: _134  and  _137
REMARK   53  A    between atoms: _137  and  _138
REMARK   54  A    between atoms: _143  and  _144
REMARK   55  A    between atoms: _146  and  _148
REMARK   56  A    between atoms: _148  and  _149
REMARK   57  A    between atoms: _148  and  _151
REMARK   58  A    between atoms: _151  and  _152
REMARK   59  A    between atoms: _157  and  _158
REMARK   60  A    between atoms: _160  and  _162
REMARK   61  A    between atoms: _162  and  _163
REMARK   62  A    between atoms: _162  and  _165
REMARK   63  A    between atoms: _165  and  _166
REMARK   64  A    between atoms: _171  and  _172
REMARK   65  A    between atoms: _174  and  _176
REMARK   66  A    between atoms: _176  and  _177
REMARK   67  A    between atoms: _176  and  _179
REMARK   68  A    between atoms: _179  and  _180
REMARK   69  A    between atoms: _185  and  _187
REMARK   70  A    between atoms: _187  and  _188
REMARK   71  A    between atoms: _191  and  _193
REMARK   72  A    between atoms: _193  and  _194
REMARK   73  A    between atoms: _197  and  _199
REMARK   74  A    between atoms: _199  and  _200
REMARK   75  A    between atoms: _199  and  _202
REMARK   76  A    between atoms: _202  and  _203
REMARK   77  A    between atoms: _203  and  _204
REMARK   78  A    between atoms: _209  and  _211
REMARK   79  A    between atoms: _211  and  _212
REMARK   80  A    between atoms: _211  and  _214
REMARK   81  A    between atoms: _214  and  _215
REMARK   82  A    between atoms: _225  and  _227
REMARK   83  A    between atoms: _227  and  _228
REMARK   84  A    between atoms: _227  and  _230
REMARK   85  A    between atoms: _230  and  _231
REMARK   86  A    between atoms: _236  and  _238
REMARK   87  A    between atoms: _238  and  _239
REMARK   88  A    between atoms: _238  and  _241
REMARK   89  A    between atoms: _241  and  _242
REMARK   90  A    between atoms: _242  and  _243
REMARK   91  A    between atoms: _246  and  _248
REMARK   92  A    between atoms: _248  and  _249
REMARK   93  A    between atoms: _248  and  _251
REMARK   94  A    between atoms: _251  and  _252
REMARK   95  A    between atoms: _254  and  _256
REMARK   96  A    between atoms: _256  and  _257
REMARK   97  A    between atoms: _256  and  _259
REMARK   98  A    between atoms: _259  and  _260
REMARK   99  A    between atoms: _265  and  _267
REMARK  100  A    between atoms: _267  and  _268
REMARK  101  A    between atoms: _267  and  _270
REMARK  102  A    between atoms: _270  and  _271
REMARK  103  A    between atoms: _274  and  _276
REMARK  104  A    between atoms: _276  and  _277
REMARK  105  A    between atoms: _276  and  _279
REMARK  106  A    between atoms: _279  and  _280
REMARK  107  A    between atoms: _285  and  _287
REMARK  108  A    between atoms: _287  and  _288
REMARK  109  A    between atoms: _287  and  _290
REMARK  110  A    between atoms: _290  and  _291
REMARK  111  A    between atoms: _294  and  _296
REMARK  112  A    between atoms: _296  and  _297
REMARK  113  A    between atoms: _296  and  _299
REMARK  114  A    between atoms: _299  and  _300
REMARK  115  A    between atoms: _310  and  _312
REMARK  116  A    between atoms: _312  and  _313
REMARK  117  A    between atoms: _312  and  _315
REMARK  118  A    between atoms: _315  and  _316
REMARK  119  A    between atoms: _316  and  _317
REMARK  120  A    between atoms: _322  and  _324
REMARK  121  A    between atoms: _324  and  _325
REMARK  122  A    between atoms: _324  and  _327
REMARK  123  A    between atoms: _327  and  _328
REMARK  124  A    between atoms: _331  and  _333
REMARK  125  A    between atoms: _333  and  _334
REMARK  126  A    between atoms: _333  and  _336
REMARK  127  A    between atoms: _336  and  _337
REMARK  128  A    between atoms: _337  and  _338
REMARK  129  A    between atoms: _338  and  _339
REMARK  130  A    between atoms: _339  and  _340
REMARK  131  A    between atoms: _344  and  _346
REMARK  132  A    between atoms: _346  and  _347
REMARK  133  A    between atoms: _346  and  _349
REMARK  134  A    between atoms: _349  and  _350
REMARK  135  A    between atoms: _355  and  _356
REMARK  136  A    between atoms: _358  and  _360
REMARK  137  A    between atoms: _360  and  _361
REMARK  138  A    between atoms: _360  and  _363
REMARK  139  A    between atoms: _363  and  _364
REMARK  140  A    between atoms: _364  and  _365
REMARK  141  A    between atoms: _365  and  _366
REMARK                            x       y       z     vdW  Elec       q    Type
REMARK                         _______ _______ _______ _____ _____    ______ ____
ROOT
ATOM      1 MN   UNK     1       7.875  10.443  47.278  0.00  0.00    +0.000 Mn
ATOM      2  O   UNK     1       9.563   9.083  48.166  0.00  0.00    +0.000 OA
ENDROOT
BRANCH   1   3
ATOM      3  O   UNK     1       6.565   8.459  46.660  0.00  0.00    +0.000 OA
BRANCH   3   4
ATOM      4  C   UNK     1       6.316   8.253  45.459  0.00  0.00    +0.000 C 
ATOM      5  O   UNK     1       5.204   7.851  45.047  0.00  0.00    +0.000 OA
BRANCH   4   6
ATOM      6  C   UNK     1       7.429   8.520  44.470  0.00  0.00    +0.000 C 
BRANCH   6   7
ATOM      7  C   UNK     1       7.040   8.194  43.028  0.00  0.00    +0.000 C 
BRANCH   7   8
ATOM      8  N   UNK     1       7.140   6.764  42.774  0.00  0.00    +0.000 NA
ATOM      9  H   UNK     1       7.659   6.169  43.451  0.00  0.00    +0.000 HD
ENDBRANCH   7   8
BRANCH   7  10
ATOM     10  C   UNK     1       8.074   8.823  42.103  0.00  0.00    +0.000 C 
ATOM     11  O   UNK     1       9.045   8.168  41.726  0.00  0.00    +0.000 OA
ENDBRANCH   7  10
ENDBRANCH   6   7
ENDBRANCH   4   6
ENDBRANCH   3   4
ENDBRANCH   1   3
BRANCH   1  12
ATOM     12  O   UNK     1       9.014  11.011  45.472  0.00  0.00    +0.000 OA
BRANCH  12  13
ATOM     13  C   UNK     1       9.563  12.040  45.918  0.00  0.00    +0.000 C 
ATOM     14  O   UNK     1       9.559  12.326  47.138  0.00  0.00    +0.000 OA
BRANCH  13  15
ATOM     15  C   UNK     1      10.243  12.992  44.945  0.00  0.00    +0.000 C 
BRANCH  15  16
ATOM     16  C   UNK     1      10.891  12.270  43.744  0.00  0.00    +0.000 C 
BRANCH  16  17
ATOM     17  C   UNK     1      12.004  11.317  44.229  0.00  0.00    +0.000 C 
ATOM     18  O   UNK     1      12.320  11.256  45.424  0.00  0.00    +0.000 OA
ENDBRANCH  16  17
BRANCH  16  19
ATOM     19  N   UNK     1       9.845  11.665  42.909  0.00  0.00    +0.000 NA
ATOM     20  H   UNK     1       8.918  11.466  43.336  0.00  0.00    +0.000 HD
ENDBRANCH  16  19
ENDBRANCH  15  16
ENDBRANCH  13  15
ENDBRANCH  12  13
ENDBRANCH   1  12
TORSDOF 12
REMARK  Name = ../refined-set-2016/1gwv/1gwv_pocket.pdb
REMARK  141 active torsions:
REMARK  status: ('A' for Active; 'I' for Inactive)
REMARK    1  A    between atoms: _1  and  _3
REMARK    2  A    between atoms: _3  and  _4
REMARK    3  A    between atoms: _3  and  _6
REMARK    4  A    between atoms: _6  and  _7
REMARK    5  A    between atoms: _17  and  _19
REMARK    6  A    between atoms: _19  and  _20
REMARK    7  A    between atoms: _19  and  _22
REMARK    8  A    between atoms: _22  and  _23
REMARK    9  A    between atoms: _23  and  _24
REMARK   10  A    between atoms: _24  and  _25
REMARK   11  A    between atoms: _34  and  _36
REMARK   12  A    between atoms: _36  and  _37
REMARK   13  A    between atoms: _36  and  _39
REMARK   14  A    between atoms: _39  and  _40
REMARK   15  A    between atoms: _40  and  _42
REMARK   16  A    between atoms: _42  and  MN_375
REMARK   17  A    between atoms: _43  and  _45
REMARK   18  A    between atoms: _45  and  _46
REMARK   19  A    between atoms: _45  and  _48
REMARK   20  A    between atoms: _48  and  _49
REMARK   21  A    between atoms: _49  and  _50
REMARK   22  A    between atoms: _50  and  MN_375
REMARK   23  A    between atoms: _52  and  _54
REMARK   24  A    between atoms: _54  and  _55
REMARK   25  A    between atoms: _54  and  _57
REMARK   26  A    between atoms: _57  and  _58
REMARK   27  A    between atoms: _58  and  _59
REMARK   28  A    between atoms: _64  and  _66
REMARK   29  A    between atoms: _66  and  _67
REMARK   30  A    between atoms: _70  and  _72
REMARK   31  A    between atoms: _72  and  _73
REMARK   32  A    between atoms: _72  and  _75
REMARK   33  A    between atoms: _75  and  _76
REMARK   34  A    between atoms: _86  and  _88
REMARK   35  A    between atoms: _88  and  _89
REMARK   36  A    between atoms: _88  and  _91
REMARK   37  A    between atoms: _91  and  _92
REMARK   38  A    between atoms: _102  and  _104
REMARK   39  A    between atoms: _104  and  _105
REMARK   40  A    between atoms: _104  and  _107
REMARK   41  A    between atoms: _107  and  _108
REMARK   42  A    between atoms: _111  and  _113
REMARK   43  A    between atoms: _113  and  _114
REMARK   44  A    between atoms: _113  and  _116
REMARK   45  A    between atoms: _116  and  _117
REMARK   46  A    between atoms: _123  and  _125
REMARK   47  A    between atoms: _125  and  _126
REMARK   48  A    between atoms: _125  and  _128
REMARK   49  A    between atoms: _128  and  _129
REMARK   50  A    between atoms: _132  and  _134
REMARK   51  A    between atoms: _134  and  _135
REMARK   52  A    between atoms: _134  and  _137
REMARK   53  A    between atoms: _137  and  _138
REMARK   54  A    between atoms: _143  and  _144
REMARK   55  A    between atoms: _146  and  _148
REMARK   56  A    between atoms: _148  and  _149
REMARK   57  A    between atoms: _148  and  _151
REMARK   58  A    between atoms: _151  and  _152
REMARK   59  A    between atoms: _157  and  _158
REMARK   60  A    between atoms: _160  and  _162
REMARK   61  A    between atoms: _162  and  _163
REMARK   62  A    between atoms: _162  and  _165
REMARK   63  A    between atoms: _165  and  _166
REMARK   64  A    between atoms: _171  and  _172
REMARK   65  A    between atoms: _174  and  _176
REMARK   66  A    between atoms: _176  and  _177
REMARK   67  A    between atoms: _176  and  _179
REMARK   68  A    between atoms: _179  and  _180
REMARK   69  A    between atoms: _185  and  _187
REMARK   70  A    between atoms: _187  and  _188
REMARK   71  A    between atoms: _191  and  _193
REMARK   72  A    between atoms: _193  and  _194
REMARK   73  A    between atoms: _197  and  _199
REMARK   74  A    between atoms: _199  and  _200
REMARK   75  A    between atoms: _199  and  _202
REMARK   76  A    between atoms: _202  and  _203
REMARK   77  A    between atoms: _203  and  _204
REMARK   78  A    between atoms: _209  and  _211
REMARK   79  A    between atoms: _211  and  _212
REMARK   80  A    between atoms: _211  and  _214
REMARK   81  A    between atoms: _214  and  _215
REMARK   82  A    between atoms: _225  and  _227
REMARK   83  A    between atoms: _227  and  _228
REMARK   84  A    between atoms: _227  and  _230
REMARK   85  A    between atoms: _230  and  _231
REMARK   86  A    between atoms: _236  and  _238
REMARK   87  A    between atoms: _238  and  _239
REMARK   88  A    between atoms: _238  and  _241
REMARK   89  A    between atoms: _241  and  _242
REMARK   90  A    between atoms: _242  and  _243
REMARK   91  A    between atoms: _246  and  _248
REMARK   92  A    between atoms: _248  and  _249
REMARK   93  A    between atoms: _248  and  _251
REMARK   94  A    between atoms: _251  and  _252
REMARK   95  A    between atoms: _254  and  _256
REMARK   96  A    between atoms: _256  and  _257
REMARK   97  A    between atoms: _256  and  _259
REMARK   98  A    between atoms: _259  and  _260
REMARK   99  A    between atoms: _265  and  _267
REMARK  100  A    between atoms: _267  and  _268
REMARK  101  A    between atoms: _267  and  _270
REMARK  102  A    between atoms: _270  and  _271
REMARK  103  A    between atoms: _274  and  _276
REMARK  104  A    between atoms: _276  and  _277
REMARK  105  A    between atoms: _276  and  _279
REMARK  106  A    between atoms: _279  and  _280
REMARK  107  A    between atoms: _285  and  _287
REMARK  108  A    between atoms: _287  and  _288
REMARK  109  A    between atoms: _287  and  _290
REMARK  110  A    between atoms: _290  and  _291
REMARK  111  A    between atoms: _294  and  _296
REMARK  112  A    between atoms: _296  and  _297
REMARK  113  A    between atoms: _296  and  _299
REMARK  114  A    between atoms: _299  and  _300
REMARK  115  A    between atoms: _310  and  _312
REMARK  116  A    between atoms: _312  and  _313
REMARK  117  A    between atoms: _312  and  _315
REMARK  118  A    between atoms: _315  and  _316
REMARK  119  A    between atoms: _316  and  _317
REMARK  120  A    between atoms: _322  and  _324
REMARK  121  A    between atoms: _324  and  _325
REMARK  122  A    between atoms: _324  and  _327
REMARK  123  A    between atoms: _327  and  _328
REMARK  124  A    between atoms: _331  and  _333
REMARK  125  A    between atoms: _333  and  _334
REMARK  126  A    between atoms: _333  and  _336
REMARK  127  A    between atoms: _336  and  _337
REMARK  128  A    between atoms: _337  and  _338
REMARK  129  A    between atoms: _338  and  _339
REMARK  130  A    between atoms: _339  and  _340
REMARK  131  A    between atoms: _344  and  _346
REMARK  132  A    between atoms: _346  and  _347
REMARK  133  A    between atoms: _346  and  _349
REMARK  134  A    between atoms: _349  and  _350
REMARK  135  A    between atoms: _355  and  _356
REMARK  136  A    between atoms: _358  and  _360
REMARK  137  A    between atoms: _360  and  _361
REMARK  138  A    between atoms: _360  and  _363
REMARK  139  A    between atoms: _363  and  _364
REMARK  140  A    between atoms: _364  and  _365
REMARK  141  A    between atoms: _365  and  _366
REMARK                            x       y       z     vdW  Elec       q    Type
REMARK                         _______ _______ _______ _____ _____    ______ ____
ROOT
ATOM      1  CA  TRP A   3      13.481   4.377  58.191  0.00  0.00    +0.153 C 
ENDROOT
BRANCH   1   4
ATOM      2  C   ALA A   2      14.300   3.227  56.212  0.00  0.00    +0.241 C 
ATOM      3  O   ALA A   2      15.281   2.799  56.824  0.00  0.00    -0.273 OA
ATOM      4  N   TRP A   3      13.380   3.995  56.787  0.00  0.00    -0.297 N 
ATOM      5  H   TRP A   3      12.572   4.330  56.225  0.00  0.00    +0.150 HD
BRANCH   2   6
ATOM      6  CA  ALA A   2      14.125   2.893  54.728  0.00  0.00    +0.149 C 
ATOM      7  CB  ALA A   2      14.943   3.882  53.904  0.00  0.00    +0.031 C 
BRANCH   6  10
ATOM      8  C   GLN A   1      11.833   1.957  54.603  0.00  0.00    +0.238 C 
ATOM      9  O   GLN A   1      11.968   1.287  55.634  0.00  0.00    -0.274 OA
ATOM     10  N   ALA A   2      12.788   2.757  54.129  0.00  0.00    -0.297 N 
ATOM     11  H   ALA A   2      12.574   3.321  53.282  0.00  0.00    +0.150 HD
BRANCH   8  12
ATOM     12  CA  GLN A   1      10.519   1.902  53.787  0.00  0.00    +0.145 C 
BRANCH  12  13
ATOM     13  N   GLN A   1      10.147   0.513  53.569  0.00  0.00    -0.238 NA
ATOM     14  H   GLN A   1       9.242   0.157  53.938  0.00  0.00    +0.142 HD
ENDBRANCH  12  13
BRANCH  12  15
ATOM     15  CB  GLN A   1       9.366   2.618  54.494  0.00  0.00    +0.036 C 
BRANCH  15  16
ATOM     16  CG  GLN A   1       9.357   4.111  54.280  0.00  0.00    +0.087 C 
BRANCH  16  17
ATOM     17  CD  GLN A   1       9.959   4.861  55.438  0.00  0.00    +0.219 C 
ATOM     18  OE1 GLN A   1      11.013   4.489  55.953  0.00  0.00    -0.275 OA
ATOM     19  NE2 GLN A   1       9.291   5.932  55.857  0.00  0.00    -0.329 N 
ATOM     20 HE21 GLN A   1       9.656   6.494  56.652  0.00  0.00    +0.145 HD
ATOM     21 HE22 GLN A   1       8.404   6.207  55.390  0.00  0.00    +0.145 HD
ENDBRANCH  16  17
ENDBRANCH  15  16
ENDBRANCH  12  15
ENDBRANCH   8  12
ENDBRANCH   6  10
ENDBRANCH   2   6
ENDBRANCH   1   4
BRANCH   1  22
ATOM     22  C   TRP A   3      12.929   3.379  59.200  0.00  0.00    +0.241 C 
ATOM     23  O   TRP A   3      13.212   3.495  60.392  0.00  0.00    -0.273 OA
ATOM     24  N   TRP A   4      12.164   2.390  58.751  0.00  0.00    -0.298 N 
ATOM     25  H   TRP A   4      12.002   2.275  57.730  0.00  0.00    +0.150 HD
BRANCH  24  26
ATOM     26  CA  TRP A   4      11.551   1.465  59.703  0.00  0.00    +0.141 C 
BRANCH  26  27
ATOM     27  C   TRP A   4      11.791  -0.027  59.528  0.00  0.00    +0.227 C 
ATOM     28  O   TRP A   4      11.205  -0.837  60.255  0.00  0.00    -0.286 OA
ENDBRANCH  26  27
BRANCH  26  29
ATOM     29  CB  TRP A   4      10.042   1.711  59.722  0.00  0.00    +0.056 C 
BRANCH  29  30
ATOM     30  CG  TRP A   4       9.686   3.129  60.013  0.00  0.00    -0.002 A 
ATOM     31  CD2 TRP A   4       9.462   3.696  61.302  0.00  0.00    +0.013 A 
ATOM     32  CE3 TRP A   4       9.471   3.177  62.605  0.00  0.00    +0.001 A 
ATOM     33  CZ3 TRP A   4       9.202   4.036  63.670  0.00  0.00    +0.000 A 
ATOM     34  CH2 TRP A   4       8.925   5.406  63.447  0.00  0.00    +0.001 A 
ATOM     35  CZ2 TRP A   4       8.912   5.938  62.181  0.00  0.00    +0.017 A 
ATOM     36  CE2 TRP A   4       9.183   5.071  61.111  0.00  0.00    +0.056 A 
ATOM     37  NE1 TRP A   4       9.239   5.318  59.764  0.00  0.00    -0.352 N 
ATOM     38  HE1 TRP A   4       9.079   6.240  59.310  0.00  0.00    +0.166 HD
ATOM     39  CD1 TRP A   4       9.541   4.147  59.112  0.00  0.00    +0.068 A 
ENDBRANCH  29  30
ENDBRANCH  26  29
ENDBRANCH  24  26
ENDBRANCH   1  22
BRANCH   1  40
ATOM     40  CB  TRP A   3      12.773   5.719  58.435  0.00  0.00    +0.057 C 
BRANCH  40  41
ATOM     41  CG  TRP A   3      13.461   6.876  57.839  0.00  0.00    -0.002 A 
ATOM     42  CD2 TRP A   3      14.315   7.804  58.518  0.00  0.00    +0.013 A 
ATOM     43  CE3 TRP A   3      14.721   7.961  59.859  0.00  0.00    +0.001 A 
ATOM     44  CZ3 TRP A   3      15.596   9.015  60.183  0.00  0.00    +0.000 A 
ATOM     45  CH2 TRP A   3      16.063   9.902  59.187  0.00  0.00    +0.001 A 
ATOM     46  CZ2 TRP A   3      15.680   9.767  57.870  0.00  0.00    +0.017 A 
ATOM     47  CE2 TRP A   3      14.801   8.711  57.547  0.00  0.00    +0.056 A 
ATOM     48  NE1 TRP A   3      14.263   8.343  56.342  0.00  0.00    -0.352 N 
ATOM     49  HE1 TRP A   3      14.434   8.818  55.433  0.00  0.00    +0.166 HD
ATOM     50  CD1 TRP A   3      13.459   7.241  56.531  0.00  0.00    +0.068 A 
ENDBRANCH  40  41
ENDBRANCH   1  40
TORSDOF 15
REMARK  Name = ../refined-set-2016/1gwv/1gwv_pocket.pdb
REMARK  141 active torsions:
REMARK  status: ('A' for Active; 'I' for Inactive)
REMARK    1  A    between atoms: _1  and  _3
REMARK    2  A    between atoms: _3  and  _4
REMARK    3  A    between atoms: _3  and  _6
REMARK    4  A    between atoms: _6  and  _7
REMARK    5  A    between atoms: _17  and  _19
REMARK    6  A    between atoms: _19  and  _20
REMARK    7  A    between atoms: _19  and  _22
REMARK    8  A    between atoms: _22  and  _23
REMARK    9  A    between atoms: _23  and  _24
REMARK   10  A    between atoms: _24  and  _25
REMARK   11  A    between atoms: _34  and  _36
REMARK   12  A    between atoms: _36  and  _37
REMARK   13  A    between atoms: _36  and  _39
REMARK   14  A    between atoms: _39  and  _40
REMARK   15  A    between atoms: _40  and  _42
REMARK   16  A    between atoms: _42  and  MN_375
REMARK   17  A    between atoms: _43  and  _45
REMARK   18  A    between atoms: _45  and  _46
REMARK   19  A    between atoms: _45  and  _48
REMARK   20  A    between atoms: _48  and  _49
REMARK   21  A    between atoms: _49  and  _50
REMARK   22  A    between atoms: _50  and  MN_375
REMARK   23  A    between atoms: _52  and  _54
REMARK   24  A    between atoms: _54  and  _55
REMARK   25  A    between atoms: _54  and  _57
REMARK   26  A    between atoms: _57  and  _58
REMARK   27  A    between atoms: _58  and  _59
REMARK   28  A    between atoms: _64  and  _66
REMARK   29  A    between atoms: _66  and  _67
REMARK   30  A    between atoms: _70  and  _72
REMARK   31  A    between atoms: _72  and  _73
REMARK   32  A    between atoms: _72  and  _75
REMARK   33  A    between atoms: _75  and  _76
REMARK   34  A    between atoms: _86  and  _88
REMARK   35  A    between atoms: _88  and  _89
REMARK   36  A    between atoms: _88  and  _91
REMARK   37  A    between atoms: _91  and  _92
REMARK   38  A    between atoms: _102  and  _104
REMARK   39  A    between atoms: _104  and  _105
REMARK   40  A    between atoms: _104  and  _107
REMARK   41  A    between atoms: _107  and  _108
REMARK   42  A    between atoms: _111  and  _113
REMARK   43  A    between atoms: _113  and  _114
REMARK   44  A    between atoms: _113  and  _116
REMARK   45  A    between atoms: _116  and  _117
REMARK   46  A    between atoms: _123  and  _125
REMARK   47  A    between atoms: _125  and  _126
REMARK   48  A    between atoms: _125  and  _128
REMARK   49  A    between atoms: _128  and  _129
REMARK   50  A    between atoms: _132  and  _134
REMARK   51  A    between atoms: _134  and  _135
REMARK   52  A    between atoms: _134  and  _137
REMARK   53  A    between atoms: _137  and  _138
REMARK   54  A    between atoms: _143  and  _144
REMARK   55  A    between atoms: _146  and  _148
REMARK   56  A    between atoms: _148  and  _149
REMARK   57  A    between atoms: _148  and  _151
REMARK   58  A    between atoms: _151  and  _152
REMARK   59  A    between atoms: _157  and  _158
REMARK   60  A    between atoms: _160  and  _162
REMARK   61  A    between atoms: _162  and  _163
REMARK   62  A    between atoms: _162  and  _165
REMARK   63  A    between atoms: _165  and  _166
REMARK   64  A    between atoms: _171  and  _172
REMARK   65  A    between atoms: _174  and  _176
REMARK   66  A    between atoms: _176  and  _177
REMARK   67  A    between atoms: _176  and  _179
REMARK   68  A    between atoms: _179  and  _180
REMARK   69  A    between atoms: _185  and  _187
REMARK   70  A    between atoms: _187  and  _188
REMARK   71  A    between atoms: _191  and  _193
REMARK   72  A    between atoms: _193  and  _194
REMARK   73  A    between atoms: _197  and  _199
REMARK   74  A    between atoms: _199  and  _200
REMARK   75  A    between atoms: _199  and  _202
REMARK   76  A    between atoms: _202  and  _203
REMARK   77  A    between atoms: _203  and  _204
REMARK   78  A    between atoms: _209  and  _211
REMARK   79  A    between atoms: _211  and  _212
REMARK   80  A    between atoms: _211  and  _214
REMARK   81  A    between atoms: _214  and  _215
REMARK   82  A    between atoms: _225  and  _227
REMARK   83  A    between atoms: _227  and  _228
REMARK   84  A    between atoms: _227  and  _230
REMARK   85  A    between atoms: _230  and  _231
REMARK   86  A    between atoms: _236  and  _238
REMARK   87  A    between atoms: _238  and  _239
REMARK   88  A    between atoms: _238  and  _241
REMARK   89  A    between atoms: _241  and  _242
REMARK   90  A    between atoms: _242  and  _243
REMARK   91  A    between atoms: _246  and  _248
REMARK   92  A    between atoms: _248  and  _249
REMARK   93  A    between atoms: _248  and  _251
REMARK   94  A    between atoms: _251  and  _252
REMARK   95  A    between atoms: _254  and  _256
REMARK   96  A    between atoms: _256  and  _257
REMARK   97  A    between atoms: _256  and  _259
REMARK   98  A    between atoms: _259  and  _260
REMARK   99  A    between atoms: _265  and  _267
REMARK  100  A    between atoms: _267  and  _268
REMARK  101  A    between atoms: _267  and  _270
REMARK  102  A    between atoms: _270  and  _271
REMARK  103  A    between atoms: _274  and  _276
REMARK  104  A    between atoms: _276  and  _277
REMARK  105  A    between atoms: _276  and  _279
REMARK  106  A    between atoms: _279  and  _280
REMARK  107  A    between atoms: _285  and  _287
REMARK  108  A    between atoms: _287  and  _288
REMARK  109  A    between atoms: _287  and  _290
REMARK  110  A    between atoms: _290  and  _291
REMARK  111  A    between atoms: _294  and  _296
REMARK  112  A    between atoms: _296  and  _297
REMARK  113  A    between atoms: _296  and  _299
REMARK  114  A    between atoms: _299  and  _300
REMARK  115  A    between atoms: _310  and  _312
REMARK  116  A    between atoms: _312  and  _313
REMARK  117  A    between atoms: _312  and  _315
REMARK  118  A    between atoms: _315  and  _316
REMARK  119  A    between atoms: _316  and  _317
REMARK  120  A    between atoms: _322  and  _324
REMARK  121  A    between atoms: _324  and  _325
REMARK  122  A    between atoms: _324  and  _327
REMARK  123  A    between atoms: _327  and  _328
REMARK  124  A    between atoms: _331  and  _333
REMARK  125  A    between atoms: _333  and  _334
REMARK  126  A    between atoms: _333  and  _336
REMARK  127  A    between atoms: _336  and  _337
REMARK  128  A    between atoms: _337  and  _338
REMARK  129  A    between atoms: _338  and  _339
REMARK  130  A    between atoms: _339  and  _340
REMARK  131  A    between atoms: _344  and  _346
REMARK  132  A    between atoms: _346  and  _347
REMARK  133  A    between atoms: _346  and  _349
REMARK  134  A    between atoms: _349  and  _350
REMARK  135  A    between atoms: _355  and  _356
REMARK  136  A    between atoms: _358  and  _360
REMARK  137  A    between atoms: _360  and  _361
REMARK  138  A    between atoms: _360  and  _363
REMARK  139  A    between atoms: _363  and  _364
REMARK  140  A    between atoms: _364  and  _365
REMARK  141  A    between atoms: _365  and  _366
REMARK                            x       y       z     vdW  Elec       q    Type
REMARK                         _______ _______ _______ _____ _____    ______ ____
ROOT
ATOM      1  C   PHE A   2       4.239   2.708  62.555  0.00  0.00    +0.241 C 
ATOM      2  O   PHE A   2       3.332   2.723  63.392  0.00  0.00    -0.273 OA
ATOM      3  N   THR A   3       4.360   3.620  61.595  0.00  0.00    -0.295 N 
ATOM      4  H   THR A   3       5.147   3.550  60.918  0.00  0.00    +0.150 HD
ENDROOT
BRANCH   3   5
ATOM      5  CA  THR A   3       3.406   4.716  61.477  0.00  0.00    +0.176 C 
BRANCH   5   6
ATOM      6  C   THR A   3       2.181   4.327  60.628  0.00  0.00    +0.243 C 
ATOM      7  N   TYR A   4       1.531   3.231  61.030  0.00  0.00    -0.298 N 
ATOM      8  H   TYR A   4       1.907   2.704  61.844  0.00  0.00    +0.150 HD
ATOM      9  O   THR A   3       1.848   4.997  59.634  0.00  0.00    -0.273 OA
BRANCH   7  10
ATOM     10  CA  TYR A   4       0.314   2.734  60.380  0.00  0.00    +0.141 C 
BRANCH  10  11
ATOM     11  C   TYR A   4      -0.809   3.693  60.789  0.00  0.00    +0.227 C 
ATOM     12  O   TYR A   4      -0.626   4.521  61.678  0.00  0.00    -0.286 OA
ENDBRANCH  10  11
BRANCH  10  13
ATOM     13  CB  TYR A   4      -0.076   1.360  60.931  0.00  0.00    +0.054 C 
BRANCH  13  14
ATOM     14  CG  TYR A   4       0.757   0.161  60.537  0.00  0.00    -0.020 A 
ATOM     15  CD2 TYR A   4       0.766  -0.981  61.349  0.00  0.00    -0.001 A 
ATOM     16  CE2 TYR A   4       1.462  -2.132  60.984  0.00  0.00    +0.036 A 
ATOM     17  CZ  TYR A   4       2.171  -2.161  59.792  0.00  0.00    +0.134 A 
ATOM     18  CE1 TYR A   4       2.189  -1.035  58.957  0.00  0.00    +0.036 A 
ATOM     19  CD1 TYR A   4       1.479   0.123  59.336  0.00  0.00    -0.001 A 
BRANCH  17  20
ATOM     20  OH  TYR A   4       2.858  -3.313  59.452  0.00  0.00    -0.506 OA
ATOM     21  HH  TYR A   4       2.513  -3.659  58.591  0.00  0.00    +0.292 HD
ENDBRANCH  17  20
ENDBRANCH  13  14
ENDBRANCH  10  13
ENDBRANCH   7  10
ENDBRANCH   5   6
BRANCH   5  22
ATOM     22  CB  THR A   3       4.066   5.972  60.874  0.00  0.00    +0.137 C 
ATOM     23  CG2 THR A   3       5.108   6.525  61.817  0.00  0.00    +0.034 C 
BRANCH  22  24
ATOM     24  OG1 THR A   3       4.686   5.636  59.629  0.00  0.00    -0.382 OA
ATOM     25  HG1 THR A   3       5.109   6.444  59.244  0.00  0.00    +0.210 HD
ENDBRANCH  22  24
ENDBRANCH   5  22
ENDBRANCH   3   5
BRANCH   1  26
ATOM     26  CA  PHE A   2       5.278   1.598  62.563  0.00  0.00    +0.153 C 
BRANCH  26  29
ATOM     27  C   ASP A   1       6.103   2.069  64.829  0.00  0.00    +0.239 C 
ATOM     28  O   ASP A   1       6.305   3.260  64.593  0.00  0.00    -0.274 OA
ATOM     29  N   PHE A   2       5.629   1.209  63.928  0.00  0.00    -0.297 N 
ATOM     30  H   PHE A   2       5.503   0.216  64.209  0.00  0.00    +0.150 HD
BRANCH  27  31
ATOM     31  CA  ASP A   1       6.402   1.489  66.204  0.00  0.00    +0.156 C 
BRANCH  31  32
ATOM     32  N   ASP A   1       5.716   0.204  66.350  0.00  0.00    -0.238 NA
ATOM     33  H   ASP A   1       6.129  -0.644  65.913  0.00  0.00    +0.142 HD
ENDBRANCH  31  32
BRANCH  31  34
ATOM     34  CB  ASP A   1       7.918   1.332  66.361  0.00  0.00    +0.140 C 
BRANCH  34  35
ATOM     35  CG  ASP A   1       8.337   1.078  67.801  0.00  0.00    +0.367 C 
ATOM     36  OD2 ASP A   1       7.952   1.884  68.678  0.00  0.00    -0.246 OA
ATOM     37  OD1 ASP A   1       9.055   0.079  68.048  0.00  0.00    -0.246 OA
ENDBRANCH  34  35
ENDBRANCH  31  34
ENDBRANCH  27  31
ENDBRANCH  26  29
BRANCH  26  38
ATOM     38  CB  PHE A   2       4.684   0.414  61.803  0.00  0.00    +0.055 C 
BRANCH  38  39
ATOM     39  CG  PHE A   2       5.644  -0.707  61.555  0.00  0.00    -0.020 A 
ATOM     40  CD2 PHE A   2       7.012  -0.532  61.728  0.00  0.00    -0.004 A 
ATOM     41  CE2 PHE A   2       7.892  -1.574  61.470  0.00  0.00    -0.000 A 
ATOM     42  CZ  PHE A   2       7.405  -2.806  61.036  0.00  0.00    -0.000 A 
ATOM     43  CE1 PHE A   2       6.045  -2.989  60.861  0.00  0.00    -0.000 A 
ATOM     44  CD1 PHE A   2       5.172  -1.943  61.119  0.00  0.00    -0.004 A 
ENDBRANCH  38  39
ENDBRANCH  26  38
ENDBRANCH   1  26
TORSDOF 17
REMARK  Name = ../refined-set-2016/1gwv/1gwv_pocket.pdb
REMARK  141 active torsions:
REMARK  status: ('A' for Active; 'I' for Inactive)
REMARK    1  A    between atoms: _1  and  _3
REMARK    2  A    between atoms: _3  and  _4
REMARK    3  A    between atoms: _3  and  _6
REMARK    4  A    between atoms: _6  and  _7
REMARK    5  A    between atoms: _17  and  _19
REMARK    6  A    between atoms: _19  and  _20
REMARK    7  A    between atoms: _19  and  _22
REMARK    8  A    between atoms: _22  and  _23
REMARK    9  A    between atoms: _23  and  _24
REMARK   10  A    between atoms: _24  and  _25
REMARK   11  A    between atoms: _34  and  _36
REMARK   12  A    between atoms: _36  and  _37
REMARK   13  A    between atoms: _36  and  _39
REMARK   14  A    between atoms: _39  and  _40
REMARK   15  A    between atoms: _40  and  _42
REMARK   16  A    between atoms: _42  and  MN_375
REMARK   17  A    between atoms: _43  and  _45
REMARK   18  A    between atoms: _45  and  _46
REMARK   19  A    between atoms: _45  and  _48
REMARK   20  A    between atoms: _48  and  _49
REMARK   21  A    between atoms: _49  and  _50
REMARK   22  A    between atoms: _50  and  MN_375
REMARK   23  A    between atoms: _52  and  _54
REMARK   24  A    between atoms: _54  and  _55
REMARK   25  A    between atoms: _54  and  _57
REMARK   26  A    between atoms: _57  and  _58
REMARK   27  A    between atoms: _58  and  _59
REMARK   28  A    between atoms: _64  and  _66
REMARK   29  A    between atoms: _66  and  _67
REMARK   30  A    between atoms: _70  and  _72
REMARK   31  A    between atoms: _72  and  _73
REMARK   32  A    between atoms: _72  and  _75
REMARK   33  A    between atoms: _75  and  _76
REMARK   34  A    between atoms: _86  and  _88
REMARK   35  A    between atoms: _88  and  _89
REMARK   36  A    between atoms: _88  and  _91
REMARK   37  A    between atoms: _91  and  _92
REMARK   38  A    between atoms: _102  and  _104
REMARK   39  A    between atoms: _104  and  _105
REMARK   40  A    between atoms: _104  and  _107
REMARK   41  A    between atoms: _107  and  _108
REMARK   42  A    between atoms: _111  and  _113
REMARK   43  A    between atoms: _113  and  _114
REMARK   44  A    between atoms: _113  and  _116
REMARK   45  A    between atoms: _116  and  _117
REMARK   46  A    between atoms: _123  and  _125
REMARK   47  A    between atoms: _125  and  _126
REMARK   48  A    between atoms: _125  and  _128
REMARK   49  A    between atoms: _128  and  _129
REMARK   50  A    between atoms: _132  and  _134
REMARK   51  A    between atoms: _134  and  _135
REMARK   52  A    between atoms: _134  and  _137
REMARK   53  A    between atoms: _137  and  _138
REMARK   54  A    between atoms: _143  and  _144
REMARK   55  A    between atoms: _146  and  _148
REMARK   56  A    between atoms: _148  and  _149
REMARK   57  A    between atoms: _148  and  _151
REMARK   58  A    between atoms: _151  and  _152
REMARK   59  A    between atoms: _157  and  _158
REMARK   60  A    between atoms: _160  and  _162
REMARK   61  A    between atoms: _162  and  _163
REMARK   62  A    between atoms: _162  and  _165
REMARK   63  A    between atoms: _165  and  _166
REMARK   64  A    between atoms: _171  and  _172
REMARK   65  A    between atoms: _174  and  _176
REMARK   66  A    between atoms: _176  and  _177
REMARK   67  A    between atoms: _176  and  _179
REMARK   68  A    between atoms: _179  and  _180
REMARK   69  A    between atoms: _185  and  _187
REMARK   70  A    between atoms: _187  and  _188
REMARK   71  A    between atoms: _191  and  _193
REMARK   72  A    between atoms: _193  and  _194
REMARK   73  A    between atoms: _197  and  _199
REMARK   74  A    between atoms: _199  and  _200
REMARK   75  A    between atoms: _199  and  _202
REMARK   76  A    between atoms: _202  and  _203
REMARK   77  A    between atoms: _203  and  _204
REMARK   78  A    between atoms: _209  and  _211
REMARK   79  A    between atoms: _211  and  _212
REMARK   80  A    between atoms: _211  and  _214
REMARK   81  A    between atoms: _214  and  _215
REMARK   82  A    between atoms: _225  and  _227
REMARK   83  A    between atoms: _227  and  _228
REMARK   84  A    between atoms: _227  and  _230
REMARK   85  A    between atoms: _230  and  _231
REMARK   86  A    between atoms: _236  and  _238
REMARK   87  A    between atoms: _238  and  _239
REMARK   88  A    between atoms: _238  and  _241
REMARK   89  A    between atoms: _241  and  _242
REMARK   90  A    between atoms: _242  and  _243
REMARK   91  A    between atoms: _246  and  _248
REMARK   92  A    between atoms: _248  and  _249
REMARK   93  A    between atoms: _248  and  _251
REMARK   94  A    between atoms: _251  and  _252
REMARK   95  A    between atoms: _254  and  _256
REMARK   96  A    between atoms: _256  and  _257
REMARK   97  A    between atoms: _256  and  _259
REMARK   98  A    between atoms: _259  and  _260
REMARK   99  A    between atoms: _265  and  _267
REMARK  100  A    between atoms: _267  and  _268
REMARK  101  A    between atoms: _267  and  _270
REMARK  102  A    between atoms: _270  and  _271
REMARK  103  A    between atoms: _274  and  _276
REMARK  104  A    between atoms: _276  and  _277
REMARK  105  A    between atoms: _276  and  _279
REMARK  106  A    between atoms: _279  and  _280
REMARK  107  A    between atoms: _285  and  _287
REMARK  108  A    between atoms: _287  and  _288
REMARK  109  A    between atoms: _287  and  _290
REMARK  110  A    between atoms: _290  and  _291
REMARK  111  A    between atoms: _294  and  _296
REMARK  112  A    between atoms: _296  and  _297
REMARK  113  A    between atoms: _296  and  _299
REMARK  114  A    between atoms: _299  and  _300
REMARK  115  A    between atoms: _310  and  _312
REMARK  116  A    between atoms: _312  and  _313
REMARK  117  A    between atoms: _312  and  _315
REMARK  118  A    between atoms: _315  and  _316
REMARK  119  A    between atoms: _316  and  _317
REMARK  120  A    between atoms: _322  and  _324
REMARK  121  A    between atoms: _324  and  _325
REMARK  122  A    between atoms: _324  and  _327
REMARK  123  A    between atoms: _327  and  _328
REMARK  124  A    between atoms: _331  and  _333
REMARK  125  A    between atoms: _333  and  _334
REMARK  126  A    between atoms: _333  and  _336
REMARK  127  A    between atoms: _336  and  _337
REMARK  128  A    between atoms: _337  and  _338
REMARK  129  A    between atoms: _338  and  _339
REMARK  130  A    between atoms: _339  and  _340
REMARK  131  A    between atoms: _344  and  _346
REMARK  132  A    between atoms: _346  and  _347
REMARK  133  A    between atoms: _346  and  _349
REMARK  134  A    between atoms: _349  and  _350
REMARK  135  A    between atoms: _355  and  _356
REMARK  136  A    between atoms: _358  and  _360
REMARK  137  A    between atoms: _360  and  _361
REMARK  138  A    between atoms: _360  and  _363
REMARK  139  A    between atoms: _363  and  _364
REMARK  140  A    between atoms: _364  and  _365
REMARK  141  A    between atoms: _365  and  _366
REMARK                            x       y       z     vdW  Elec       q    Type
REMARK                         _______ _______ _______ _____ _____    ______ ____
ROOT
ATOM      1  CA  TYR A   2       5.830  -0.719  53.252  0.00  0.00    +0.153 C 
ENDROOT
BRANCH   1   4
ATOM      2  C   TYR A   1       6.515  -0.785  55.583  0.00  0.00    +0.239 C 
ATOM      3  O   TYR A   1       7.687  -0.577  55.288  0.00  0.00    -0.274 OA
ATOM      4  N   TYR A   2       5.547  -0.874  54.675  0.00  0.00    -0.297 N 
ATOM      5  H   TYR A   2       4.571  -1.057  54.985  0.00  0.00    +0.150 HD
BRANCH   2   6
ATOM      6  CA  TYR A   1       6.099  -0.985  57.029  0.00  0.00    +0.149 C 
BRANCH   6   7
ATOM      7  N   TYR A   1       6.651  -2.273  57.408  0.00  0.00    -0.238 NA
ATOM      8  H   TYR A   1       7.672  -2.371  57.577  0.00  0.00    +0.142 HD
ENDBRANCH   6   7
BRANCH   6   9
ATOM      9  CB  TYR A   1       6.634   0.162  57.883  0.00  0.00    +0.053 C 
BRANCH   9  10
ATOM     10  CG  TYR A   1       5.867   1.435  57.608  0.00  0.00    -0.020 A 
ATOM     11  CD2 TYR A   1       4.530   1.539  57.980  0.00  0.00    -0.001 A 
ATOM     12  CE2 TYR A   1       3.769   2.650  57.645  0.00  0.00    +0.036 A 
ATOM     13  CZ  TYR A   1       4.338   3.685  56.933  0.00  0.00    +0.134 A 
ATOM     14  CE1 TYR A   1       5.674   3.631  56.553  0.00  0.00    +0.036 A 
ATOM     15  CD1 TYR A   1       6.435   2.497  56.893  0.00  0.00    -0.001 A 
BRANCH  13  16
ATOM     16  OH  TYR A   1       3.531   4.735  56.579  0.00  0.00    -0.506 OA
ATOM     17  HH  TYR A   1       4.062   5.403  56.076  0.00  0.00    +0.292 HD
ENDBRANCH  13  16
ENDBRANCH   9  10
ENDBRANCH   6   9
ENDBRANCH   2   6
ENDBRANCH   1   4
BRANCH   1  18
ATOM     18  C   TYR A   2       5.840   0.735  52.805  0.00  0.00    +0.241 C 
ATOM     19  O   TYR A   2       5.076   1.564  53.306  0.00  0.00    -0.273 OA
ATOM     20  N   HIS A   3       6.724   1.036  51.863  0.00  0.00    -0.297 N 
ATOM     21  H   HIS A   3       7.341   0.284  51.494  0.00  0.00    +0.150 HD
BRANCH  20  22
ATOM     22  CA  HIS A   3       6.859   2.375  51.331  0.00  0.00    +0.155 C 
BRANCH  22  23
ATOM     23  C   HIS A   3       6.026   2.504  50.045  0.00  0.00    +0.241 C 
ATOM     24  N   ALA A   4       5.205   3.553  49.958  0.00  0.00    -0.297 N 
ATOM     25  H   ALA A   4       5.170   4.235  50.742  0.00  0.00    +0.150 HD
ATOM     26  O   HIS A   3       6.127   1.665  49.147  0.00  0.00    -0.273 OA
BRANCH  24  27
ATOM     27  CA  ALA A   4       4.352   3.769  48.787  0.00  0.00    +0.149 C 
ATOM     28  CB  ALA A   4       3.280   4.776  49.117  0.00  0.00    +0.031 C 
BRANCH  27  29
ATOM     29  C   ALA A   4       5.091   4.223  47.537  0.00  0.00    +0.241 C 
ATOM     30  N   ALA A   5       6.344   4.634  47.695  0.00  0.00    -0.298 N 
ATOM     31  H   ALA A   5       6.775   4.614  48.641  0.00  0.00    +0.150 HD
ATOM     32  O   ALA A   4       4.535   4.199  46.441  0.00  0.00    -0.273 OA
BRANCH  30  33
ATOM     33  CA  ALA A   5       7.125   5.114  46.558  0.00  0.00    +0.137 C 
ATOM     34  CB  ALA A   5       8.427   5.752  47.057  0.00  0.00    +0.030 C 
BRANCH  33  35
ATOM     35  C   ALA A   5       7.426   4.044  45.503  0.00  0.00    +0.227 C 
ATOM     36  O   ALA A   5       7.726   4.372  44.347  0.00  0.00    -0.286 OA
ENDBRANCH  33  35
ENDBRANCH  30  33
ENDBRANCH  27  29
ENDBRANCH  24  27
ENDBRANCH  22  23
BRANCH  22  37
ATOM     37  CB  HIS A   3       8.336   2.643  51.046  0.00  0.00    +0.076 C 
BRANCH  37  38
ATOM     38  CG  HIS A   3       8.657   4.085  50.809  0.00  0.00    +0.082 A 
ATOM     39  CD2 HIS A   3       7.892   5.195  50.904  0.00  0.00    +0.115 A 
ATOM     40  NE2 HIS A   3       8.682   6.261  50.550  0.00  0.00    -0.221 NA
ATOM     41  CE1 HIS A   3       9.889   5.820  50.251  0.00  0.00    +0.199 A 
ATOM     42  ND1 HIS A   3       9.900   4.510  50.402  0.00  0.00    -0.227 NA
ENDBRANCH  37  38
ENDBRANCH  22  37
ENDBRANCH  20  22
ENDBRANCH   1  18
BRANCH   1  43
ATOM     43  CB  TYR A   2       4.814  -1.523  52.438  0.00  0.00    +0.055 C 
BRANCH  43  44
ATOM     44  CG  TYR A   2       4.772  -2.976  52.844  0.00  0.00    -0.020 A 
ATOM     45  CD2 TYR A   2       3.696  -3.497  53.550  0.00  0.00    -0.001 A 
ATOM     46  CE2 TYR A   2       3.685  -4.836  53.949  0.00  0.00    +0.036 A 
ATOM     47  CZ  TYR A   2       4.762  -5.651  53.640  0.00  0.00    +0.134 A 
ATOM     48  CE1 TYR A   2       5.833  -5.148  52.942  0.00  0.00    +0.036 A 
ATOM     49  CD1 TYR A   2       5.835  -3.824  52.548  0.00  0.00    -0.001 A 
BRANCH  47  50
ATOM     50  OH  TYR A   2       4.790  -6.968  54.035  0.00  0.00    -0.506 OA
ATOM     51  HH  TYR A   2       3.956  -7.183  54.523  0.00  0.00    +0.292 HD
ENDBRANCH  47  50
ENDBRANCH  43  44
ENDBRANCH   1  43
TORSDOF 18
REMARK  Name = ../refined-set-2016/1gwv/1gwv_pocket.pdb
REMARK  141 active torsions:
REMARK  status: ('A' for Active; 'I' for Inactive)
REMARK    1  A    between atoms: _1  and  _3
REMARK    2  A    between atoms: _3  and  _4
REMARK    3  A    between atoms: _3  and  _6
REMARK    4  A    between atoms: _6  and  _7
REMARK    5  A    between atoms: _17  and  _19
REMARK    6  A    between atoms: _19  and  _20
REMARK    7  A    between atoms: _19  and  _22
REMARK    8  A    between atoms: _22  and  _23
REMARK    9  A    between atoms: _23  and  _24
REMARK   10  A    between atoms: _24  and  _25
REMARK   11  A    between atoms: _34  and  _36
REMARK   12  A    between atoms: _36  and  _37
REMARK   13  A    between atoms: _36  and  _39
REMARK   14  A    between atoms: _39  and  _40
REMARK   15  A    between atoms: _40  and  _42
REMARK   16  A    between atoms: _42  and  MN_375
REMARK   17  A    between atoms: _43  and  _45
REMARK   18  A    between atoms: _45  and  _46
REMARK   19  A    between atoms: _45  and  _48
REMARK   20  A    between atoms: _48  and  _49
REMARK   21  A    between atoms: _49  and  _50
REMARK   22  A    between atoms: _50  and  MN_375
REMARK   23  A    between atoms: _52  and  _54
REMARK   24  A    between atoms: _54  and  _55
REMARK   25  A    between atoms: _54  and  _57
REMARK   26  A    between atoms: _57  and  _58
REMARK   27  A    between atoms: _58  and  _59
REMARK   28  A    between atoms: _64  and  _66
REMARK   29  A    between atoms: _66  and  _67
REMARK   30  A    between atoms: _70  and  _72
REMARK   31  A    between atoms: _72  and  _73
REMARK   32  A    between atoms: _72  and  _75
REMARK   33  A    between atoms: _75  and  _76
REMARK   34  A    between atoms: _86  and  _88
REMARK   35  A    between atoms: _88  and  _89
REMARK   36  A    between atoms: _88  and  _91
REMARK   37  A    between atoms: _91  and  _92
REMARK   38  A    between atoms: _102  and  _104
REMARK   39  A    between atoms: _104  and  _105
REMARK   40  A    between atoms: _104  and  _107
REMARK   41  A    between atoms: _107  and  _108
REMARK   42  A    between atoms: _111  and  _113
REMARK   43  A    between atoms: _113  and  _114
REMARK   44  A    between atoms: _113  and  _116
REMARK   45  A    between atoms: _116  and  _117
REMARK   46  A    between atoms: _123  and  _125
REMARK   47  A    between atoms: _125  and  _126
REMARK   48  A    between atoms: _125  and  _128
REMARK   49  A    between atoms: _128  and  _129
REMARK   50  A    between atoms: _132  and  _134
REMARK   51  A    between atoms: _134  and  _135
REMARK   52  A    between atoms: _134  and  _137
REMARK   53  A    between atoms: _137  and  _138
REMARK   54  A    between atoms: _143  and  _144
REMARK   55  A    between atoms: _146  and  _148
REMARK   56  A    between atoms: _148  and  _149
REMARK   57  A    between atoms: _148  and  _151
REMARK   58  A    between atoms: _151  and  _152
REMARK   59  A    between atoms: _157  and  _158
REMARK   60  A    between atoms: _160  and  _162
REMARK   61  A    between atoms: _162  and  _163
REMARK   62  A    between atoms: _162  and  _165
REMARK   63  A    between atoms: _165  and  _166
REMARK   64  A    between atoms: _171  and  _172
REMARK   65  A    between atoms: _174  and  _176
REMARK   66  A    between atoms: _176  and  _177
REMARK   67  A    between atoms: _176  and  _179
REMARK   68  A    between atoms: _179  and  _180
REMARK   69  A    between atoms: _185  and  _187
REMARK   70  A    between atoms: _187  and  _188
REMARK   71  A    between atoms: _191  and  _193
REMARK   72  A    between atoms: _193  and  _194
REMARK   73  A    between atoms: _197  and  _199
REMARK   74  A    between atoms: _199  and  _200
REMARK   75  A    between atoms: _199  and  _202
REMARK   76  A    between atoms: _202  and  _203
REMARK   77  A    between atoms: _203  and  _204
REMARK   78  A    between atoms: _209  and  _211
REMARK   79  A    between atoms: _211  and  _212
REMARK   80  A    between atoms: _211  and  _214
REMARK   81  A    between atoms: _214  and  _215
REMARK   82  A    between atoms: _225  and  _227
REMARK   83  A    between atoms: _227  and  _228
REMARK   84  A    between atoms: _227  and  _230
REMARK   85  A    between atoms: _230  and  _231
REMARK   86  A    between atoms: _236  and  _238
REMARK   87  A    between atoms: _238  and  _239
REMARK   88  A    between atoms: _238  and  _241
REMARK   89  A    between atoms: _241  and  _242
REMARK   90  A    between atoms: _242  and  _243
REMARK   91  A    between atoms: _246  and  _248
REMARK   92  A    between atoms: _248  and  _249
REMARK   93  A    between atoms: _248  and  _251
REMARK   94  A    between atoms: _251  and  _252
REMARK   95  A    between atoms: _254  and  _256
REMARK   96  A    between atoms: _256  and  _257
REMARK   97  A    between atoms: _256  and  _259
REMARK   98  A    between atoms: _259  and  _260
REMARK   99  A    between atoms: _265  and  _267
REMARK  100  A    between atoms: _267  and  _268
REMARK  101  A    between atoms: _267  and  _270
REMARK  102  A    between atoms: _270  and  _271
REMARK  103  A    between atoms: _274  and  _276
REMARK  104  A    between atoms: _276  and  _277
REMARK  105  A    between atoms: _276  and  _279
REMARK  106  A    between atoms: _279  and  _280
REMARK  107  A    between atoms: _285  and  _287
REMARK  108  A    between atoms: _287  and  _288
REMARK  109  A    between atoms: _287  and  _290
REMARK  110  A    between atoms: _290  and  _291
REMARK  111  A    between atoms: _294  and  _296
REMARK  112  A    between atoms: _296  and  _297
REMARK  113  A    between atoms: _296  and  _299
REMARK  114  A    between atoms: _299  and  _300
REMARK  115  A    between atoms: _310  and  _312
REMARK  116  A    between atoms: _312  and  _313
REMARK  117  A    between atoms: _312  and  _315
REMARK  118  A    between atoms: _315  and  _316
REMARK  119  A    between atoms: _316  and  _317
REMARK  120  A    between atoms: _322  and  _324
REMARK  121  A    between atoms: _324  and  _325
REMARK  122  A    between atoms: _324  and  _327
REMARK  123  A    between atoms: _327  and  _328
REMARK  124  A    between atoms: _331  and  _333
REMARK  125  A    between atoms: _333  and  _334
REMARK  126  A    between atoms: _333  and  _336
REMARK  127  A    between atoms: _336  and  _337
REMARK  128  A    between atoms: _337  and  _338
REMARK  129  A    between atoms: _338  and  _339
REMARK  130  A    between atoms: _339  and  _340
REMARK  131  A    between atoms: _344  and  _346
REMARK  132  A    between atoms: _346  and  _347
REMARK  133  A    between atoms: _346  and  _349
REMARK  134  A    between atoms: _349  and  _350
REMARK  135  A    between atoms: _355  and  _356
REMARK  136  A    between atoms: _358  and  _360
REMARK  137  A    between atoms: _360  and  _361
REMARK  138  A    between atoms: _360  and  _363
REMARK  139  A    between atoms: _363  and  _364
REMARK  140  A    between atoms: _364  and  _365
REMARK  141  A    between atoms: _365  and  _366
REMARK                            x       y       z     vdW  Elec       q    Type
REMARK                         _______ _______ _______ _____ _____    ______ ____
ROOT
ATOM      1  CA  TRP A   2      -0.025   8.754  55.418  0.00  0.00    +0.153 C 
ENDROOT
BRANCH   1   4
ATOM      2  C   GLN A   1      -1.347   9.741  57.153  0.00  0.00    +0.238 C 
ATOM      3  O   GLN A   1      -0.768  10.818  56.998  0.00  0.00    -0.274 OA
ATOM      4  N   TRP A   2      -1.039   8.662  56.450  0.00  0.00    -0.297 N 
ATOM      5  H   TRP A   2      -1.519   7.758  56.636  0.00  0.00    +0.150 HD
BRANCH   2   6
ATOM      6  CA  GLN A   1      -2.427   9.583  58.206  0.00  0.00    +0.145 C 
BRANCH   6   7
ATOM      7  N   GLN A   1      -3.566   8.802  57.760  0.00  0.00    -0.238 NA
ATOM      8  H   GLN A   1      -3.855   7.970  58.313  0.00  0.00    +0.142 HD
ENDBRANCH   6   7
BRANCH   6   9
ATOM      9  CB  GLN A   1      -1.807   8.957  59.453  0.00  0.00    +0.036 C 
BRANCH   9  10
ATOM     10  CG  GLN A   1      -0.810   9.868  60.124  0.00  0.00    +0.087 C 
BRANCH  10  11
ATOM     11  CD  GLN A   1       0.061   9.143  61.116  0.00  0.00    +0.219 C 
ATOM     12  OE1 GLN A   1       0.717   9.772  61.941  0.00  0.00    -0.275 OA
ATOM     13  NE2 GLN A   1       0.087   7.814  61.037  0.00  0.00    -0.329 N 
ATOM     14 HE21 GLN A   1       0.681   7.266  61.692  0.00  0.00    +0.145 HD
ATOM     15 HE22 GLN A   1      -0.486   7.324  60.321  0.00  0.00    +0.145 HD
ENDBRANCH  10  11
ENDBRANCH   9  10
ENDBRANCH   6   9
ENDBRANCH   2   6
ENDBRANCH   1   4
BRANCH   1  16
ATOM     16  C   TRP A   2      -0.631   8.468  54.058  0.00  0.00    +0.241 C 
ATOM     17  N   HIS A   3      -1.904   8.824  53.943  0.00  0.00    -0.298 N 
ATOM     18  H   HIS A   3      -2.383   9.215  54.779  0.00  0.00    +0.150 HD
ATOM     19  O   TRP A   2       0.016   7.940  53.161  0.00  0.00    -0.273 OA
BRANCH  17  20
ATOM     20  CA  HIS A   3      -2.659   8.698  52.719  0.00  0.00    +0.143 C 
BRANCH  20  21
ATOM     21  C   HIS A   3      -2.655   7.325  52.057  0.00  0.00    +0.227 C 
ATOM     22  O   HIS A   3      -3.033   6.335  52.676  0.00  0.00    -0.286 OA
ENDBRANCH  20  21
BRANCH  20  23
ATOM     23  CB  HIS A   3      -2.167   9.790  51.776  0.00  0.00    +0.075 C 
BRANCH  23  24
ATOM     24  CG  HIS A   3      -1.940  11.094  52.478  0.00  0.00    +0.082 A 
ATOM     25  CD2 HIS A   3      -2.817  11.990  52.996  0.00  0.00    +0.115 A 
ATOM     26  NE2 HIS A   3      -2.082  12.932  53.673  0.00  0.00    -0.221 NA
ATOM     27  CE1 HIS A   3      -0.800  12.634  53.567  0.00  0.00    +0.199 A 
ATOM     28  ND1 HIS A   3      -0.686  11.531  52.848  0.00  0.00    -0.227 NA
ENDBRANCH  23  24
ENDBRANCH  20  23
ENDBRANCH  17  20
ENDBRANCH   1  16
BRANCH   1  29
ATOM     29  CB  TRP A   2       1.149   7.827  55.732  0.00  0.00    +0.057 C 
BRANCH  29  30
ATOM     30  CG  TRP A   2       1.989   8.388  56.826  0.00  0.00    -0.002 A 
ATOM     31  CD1 TRP A   2       2.036   7.968  58.120  0.00  0.00    +0.068 A 
ATOM     32  NE1 TRP A   2       2.864   8.783  58.855  0.00  0.00    -0.352 N 
ATOM     33  HE1 TRP A   2       3.070   8.678  59.869  0.00  0.00    +0.166 HD
ATOM     34  CE2 TRP A   2       3.374   9.757  58.035  0.00  0.00    +0.056 A 
ATOM     35  CZ2 TRP A   2       4.260  10.813  58.319  0.00  0.00    +0.017 A 
ATOM     36  CH2 TRP A   2       4.606  11.646  57.287  0.00  0.00    +0.001 A 
ATOM     37  CZ3 TRP A   2       4.096  11.455  55.985  0.00  0.00    +0.000 A 
ATOM     38  CE3 TRP A   2       3.215  10.404  55.704  0.00  0.00    +0.001 A 
ATOM     39  CD2 TRP A   2       2.845   9.537  56.744  0.00  0.00    +0.013 A 
ENDBRANCH  29  30
ENDBRANCH   1  29
TORSDOF 13
REMARK  Name = ../refined-set-2016/1gwv/1gwv_pocket.pdb
REMARK  141 active torsions:
REMARK  status: ('A' for Active; 'I' for Inactive)
REMARK    1  A    between atoms: _1  and  _3
REMARK    2  A    between atoms: _3  and  _4
REMARK    3  A    between atoms: _3  and  _6
REMARK    4  A    between atoms: _6  and  _7
REMARK    5  A    between atoms: _17  and  _19
REMARK    6  A    between atoms: _19  and  _20
REMARK    7  A    between atoms: _19  and  _22
REMARK    8  A    between atoms: _22  and  _23
REMARK    9  A    between atoms: _23  and  _24
REMARK   10  A    between atoms: _24  and  _25
REMARK   11  A    between atoms: _34  and  _36
REMARK   12  A    between atoms: _36  and  _37
REMARK   13  A    between atoms: _36  and  _39
REMARK   14  A    between atoms: _39  and  _40
REMARK   15  A    between atoms: _40  and  _42
REMARK   16  A    between atoms: _42  and  MN_375
REMARK   17  A    between atoms: _43  and  _45
REMARK   18  A    between atoms: _45  and  _46
REMARK   19  A    between atoms: _45  and  _48
REMARK   20  A    between atoms: _48  and  _49
REMARK   21  A    between atoms: _49  and  _50
REMARK   22  A    between atoms: _50  and  MN_375
REMARK   23  A    between atoms: _52  and  _54
REMARK   24  A    between atoms: _54  and  _55
REMARK   25  A    between atoms: _54  and  _57
REMARK   26  A    between atoms: _57  and  _58
REMARK   27  A    between atoms: _58  and  _59
REMARK   28  A    between atoms: _64  and  _66
REMARK   29  A    between atoms: _66  and  _67
REMARK   30  A    between atoms: _70  and  _72
REMARK   31  A    between atoms: _72  and  _73
REMARK   32  A    between atoms: _72  and  _75
REMARK   33  A    between atoms: _75  and  _76
REMARK   34  A    between atoms: _86  and  _88
REMARK   35  A    between atoms: _88  and  _89
REMARK   36  A    between atoms: _88  and  _91
REMARK   37  A    between atoms: _91  and  _92
REMARK   38  A    between atoms: _102  and  _104
REMARK   39  A    between atoms: _104  and  _105
REMARK   40  A    between atoms: _104  and  _107
REMARK   41  A    between atoms: _107  and  _108
REMARK   42  A    between atoms: _111  and  _113
REMARK   43  A    between atoms: _113  and  _114
REMARK   44  A    between atoms: _113  and  _116
REMARK   45  A    between atoms: _116  and  _117
REMARK   46  A    between atoms: _123  and  _125
REMARK   47  A    between atoms: _125  and  _126
REMARK   48  A    between atoms: _125  and  _128
REMARK   49  A    between atoms: _128  and  _129
REMARK   50  A    between atoms: _132  and  _134
REMARK   51  A    between atoms: _134  and  _135
REMARK   52  A    between atoms: _134  and  _137
REMARK   53  A    between atoms: _137  and  _138
REMARK   54  A    between atoms: _143  and  _144
REMARK   55  A    between atoms: _146  and  _148
REMARK   56  A    between atoms: _148  and  _149
REMARK   57  A    between atoms: _148  and  _151
REMARK   58  A    between atoms: _151  and  _152
REMARK   59  A    between atoms: _157  and  _158
REMARK   60  A    between atoms: _160  and  _162
REMARK   61  A    between atoms: _162  and  _163
REMARK   62  A    between atoms: _162  and  _165
REMARK   63  A    between atoms: _165  and  _166
REMARK   64  A    between atoms: _171  and  _172
REMARK   65  A    between atoms: _174  and  _176
REMARK   66  A    between atoms: _176  and  _177
REMARK   67  A    between atoms: _176  and  _179
REMARK   68  A    between atoms: _179  and  _180
REMARK   69  A    between atoms: _185  and  _187
REMARK   70  A    between atoms: _187  and  _188
REMARK   71  A    between atoms: _191  and  _193
REMARK   72  A    between atoms: _193  and  _194
REMARK   73  A    between atoms: _197  and  _199
REMARK   74  A    between atoms: _199  and  _200
REMARK   75  A    between atoms: _199  and  _202
REMARK   76  A    between atoms: _202  and  _203
REMARK   77  A    between atoms: _203  and  _204
REMARK   78  A    between atoms: _209  and  _211
REMARK   79  A    between atoms: _211  and  _212
REMARK   80  A    between atoms: _211  and  _214
REMARK   81  A    between atoms: _214  and  _215
REMARK   82  A    between atoms: _225  and  _227
REMARK   83  A    between atoms: _227  and  _228
REMARK   84  A    between atoms: _227  and  _230
REMARK   85  A    between atoms: _230  and  _231
REMARK   86  A    between atoms: _236  and  _238
REMARK   87  A    between atoms: _238  and  _239
REMARK   88  A    between atoms: _238  and  _241
REMARK   89  A    between atoms: _241  and  _242
REMARK   90  A    between atoms: _242  and  _243
REMARK   91  A    between atoms: _246  and  _248
REMARK   92  A    between atoms: _248  and  _249
REMARK   93  A    between atoms: _248  and  _251
REMARK   94  A    between atoms: _251  and  _252
REMARK   95  A    between atoms: _254  and  _256
REMARK   96  A    between atoms: _256  and  _257
REMARK   97  A    between atoms: _256  and  _259
REMARK   98  A    between atoms: _259  and  _260
REMARK   99  A    between atoms: _265  and  _267
REMARK  100  A    between atoms: _267  and  _268
REMARK  101  A    between atoms: _267  and  _270
REMARK  102  A    between atoms: _270  and  _271
REMARK  103  A    between atoms: _274  and  _276
REMARK  104  A    between atoms: _276  and  _277
REMARK  105  A    between atoms: _276  and  _279
REMARK  106  A    between atoms: _279  and  _280
REMARK  107  A    between atoms: _285  and  _287
REMARK  108  A    between atoms: _287  and  _288
REMARK  109  A    between atoms: _287  and  _290
REMARK  110  A    between atoms: _290  and  _291
REMARK  111  A    between atoms: _294  and  _296
REMARK  112  A    between atoms: _296  and  _297
REMARK  113  A    between atoms: _296  and  _299
REMARK  114  A    between atoms: _299  and  _300
REMARK  115  A    between atoms: _310  and  _312
REMARK  116  A    between atoms: _312  and  _313
REMARK  117  A    between atoms: _312  and  _315
REMARK  118  A    between atoms: _315  and  _316
REMARK  119  A    between atoms: _316  and  _317
REMARK  120  A    between atoms: _322  and  _324
REMARK  121  A    between atoms: _324  and  _325
REMARK  122  A    between atoms: _324  and  _327
REMARK  123  A    between atoms: _327  and  _328
REMARK  124  A    between atoms: _331  and  _333
REMARK  125  A    between atoms: _333  and  _334
REMARK  126  A    between atoms: _333  and  _336
REMARK  127  A    between atoms: _336  and  _337
REMARK  128  A    between atoms: _337  and  _338
REMARK  129  A    between atoms: _338  and  _339
REMARK  130  A    between atoms: _339  and  _340
REMARK  131  A    between atoms: _344  and  _346
REMARK  132  A    between atoms: _346  and  _347
REMARK  133  A    between atoms: _346  and  _349
REMARK  134  A    between atoms: _349  and  _350
REMARK  135  A    between atoms: _355  and  _356
REMARK  136  A    between atoms: _358  and  _360
REMARK  137  A    between atoms: _360  and  _361
REMARK  138  A    between atoms: _360  and  _363
REMARK  139  A    between atoms: _363  and  _364
REMARK  140  A    between atoms: _364  and  _365
REMARK  141  A    between atoms: _365  and  _366
REMARK                            x       y       z     vdW  Elec       q    Type
REMARK                         _______ _______ _______ _____ _____    ______ ____
ROOT
ATOM      1  C   GLU A   1       0.066   3.706  53.022  0.00  0.00    +0.238 C 
ATOM      2  N   SER A   2      -0.748   4.428  53.795  0.00  0.00    -0.296 N 
ATOM      3  H   SER A   2      -0.855   5.444  53.601  0.00  0.00    +0.150 HD
ATOM      4  O   GLU A   1       0.266   2.498  53.183  0.00  0.00    -0.274 OA
ENDROOT
BRANCH   1   5
ATOM      5  CA  GLU A   1       0.750   4.463  51.894  0.00  0.00    +0.145 C 
BRANCH   5   6
ATOM      6  N   GLU A   1      -0.213   5.393  51.318  0.00  0.00    -0.238 NA
ATOM      7  H   GLU A   1      -0.073   6.417  51.433  0.00  0.00    +0.142 HD
ENDBRANCH   5   6
BRANCH   5   8
ATOM      8  CB  GLU A   1       1.964   5.215  52.431  0.00  0.00    +0.038 C 
BRANCH   8   9
ATOM      9  CG  GLU A   1       3.109   4.317  52.858  0.00  0.00    +0.116 C 
BRANCH   9  10
ATOM     10  CD  GLU A   1       4.377   5.106  53.082  0.00  0.00    +0.365 C 
ATOM     11  OE2 GLU A   1       4.636   5.511  54.235  0.00  0.00    -0.246 OA
ATOM     12  OE1 GLU A   1       5.108   5.337  52.093  0.00  0.00    -0.246 OA
ENDBRANCH   9  10
ENDBRANCH   8   9
ENDBRANCH   5   8
ENDBRANCH   1   5
BRANCH   2  13
ATOM     13  CA  SER A   2      -1.491   3.841  54.899  0.00  0.00    +0.166 C 
BRANCH  13  14
ATOM     14  CB  SER A   2      -2.432   2.801  54.326  0.00  0.00    +0.229 C 
ATOM     15  OG  SER A   2      -2.552   1.704  54.857  0.00  0.00    -0.286 OA
ENDBRANCH  13  14
BRANCH  13  16
ATOM     16  C   SER A   2      -2.305   4.905  55.631  0.00  0.00    +0.165 C 
BRANCH  16  17
ATOM     17  O   SER A   2      -1.459   5.852  56.258  0.00  0.00    -0.380 OA
ATOM     18  H   SER A   2      -0.878   5.391  56.913  0.00  0.00    +0.211 HD
ENDBRANCH  16  17
ENDBRANCH  13  16
ENDBRANCH   2  13
TORSDOF 9
REMARK  Name = ../refined-set-2016/1gwv/1gwv_pocket.pdb
REMARK  141 active torsions:
REMARK  status: ('A' for Active; 'I' for Inactive)
REMARK    1  A    between atoms: _1  and  _3
REMARK    2  A    between atoms: _3  and  _4
REMARK    3  A    between atoms: _3  and  _6
REMARK    4  A    between atoms: _6  and  _7
REMARK    5  A    between atoms: _17  and  _19
REMARK    6  A    between atoms: _19  and  _20
REMARK    7  A    between atoms: _19  and  _22
REMARK    8  A    between atoms: _22  and  _23
REMARK    9  A    between atoms: _23  and  _24
REMARK   10  A    between atoms: _24  and  _25
REMARK   11  A    between atoms: _34  and  _36
REMARK   12  A    between atoms: _36  and  _37
REMARK   13  A    between atoms: _36  and  _39
REMARK   14  A    between atoms: _39  and  _40
REMARK   15  A    between atoms: _40  and  _42
REMARK   16  A    between atoms: _42  and  MN_375
REMARK   17  A    between atoms: _43  and  _45
REMARK   18  A    between atoms: _45  and  _46
REMARK   19  A    between atoms: _45  and  _48
REMARK   20  A    between atoms: _48  and  _49
REMARK   21  A    between atoms: _49  and  _50
REMARK   22  A    between atoms: _50  and  MN_375
REMARK   23  A    between atoms: _52  and  _54
REMARK   24  A    between atoms: _54  and  _55
REMARK   25  A    between atoms: _54  and  _57
REMARK   26  A    between atoms: _57  and  _58
REMARK   27  A    between atoms: _58  and  _59
REMARK   28  A    between atoms: _64  and  _66
REMARK   29  A    between atoms: _66  and  _67
REMARK   30  A    between atoms: _70  and  _72
REMARK   31  A    between atoms: _72  and  _73
REMARK   32  A    between atoms: _72  and  _75
REMARK   33  A    between atoms: _75  and  _76
REMARK   34  A    between atoms: _86  and  _88
REMARK   35  A    between atoms: _88  and  _89
REMARK   36  A    between atoms: _88  and  _91
REMARK   37  A    between atoms: _91  and  _92
REMARK   38  A    between atoms: _102  and  _104
REMARK   39  A    between atoms: _104  and  _105
REMARK   40  A    between atoms: _104  and  _107
REMARK   41  A    between atoms: _107  and  _108
REMARK   42  A    between atoms: _111  and  _113
REMARK   43  A    between atoms: _113  and  _114
REMARK   44  A    between atoms: _113  and  _116
REMARK   45  A    between atoms: _116  and  _117
REMARK   46  A    between atoms: _123  and  _125
REMARK   47  A    between atoms: _125  and  _126
REMARK   48  A    between atoms: _125  and  _128
REMARK   49  A    between atoms: _128  and  _129
REMARK   50  A    between atoms: _132  and  _134
REMARK   51  A    between atoms: _134  and  _135
REMARK   52  A    between atoms: _134  and  _137
REMARK   53  A    between atoms: _137  and  _138
REMARK   54  A    between atoms: _143  and  _144
REMARK   55  A    between atoms: _146  and  _148
REMARK   56  A    between atoms: _148  and  _149
REMARK   57  A    between atoms: _148  and  _151
REMARK   58  A    between atoms: _151  and  _152
REMARK   59  A    between atoms: _157  and  _158
REMARK   60  A    between atoms: _160  and  _162
REMARK   61  A    between atoms: _162  and  _163
REMARK   62  A    between atoms: _162  and  _165
REMARK   63  A    between atoms: _165  and  _166
REMARK   64  A    between atoms: _171  and  _172
REMARK   65  A    between atoms: _174  and  _176
REMARK   66  A    between atoms: _176  and  _177
REMARK   67  A    between atoms: _176  and  _179
REMARK   68  A    between atoms: _179  and  _180
REMARK   69  A    between atoms: _185  and  _187
REMARK   70  A    between atoms: _187  and  _188
REMARK   71  A    between atoms: _191  and  _193
REMARK   72  A    between atoms: _193  and  _194
REMARK   73  A    between atoms: _197  and  _199
REMARK   74  A    between atoms: _199  and  _200
REMARK   75  A    between atoms: _199  and  _202
REMARK   76  A    between atoms: _202  and  _203
REMARK   77  A    between atoms: _203  and  _204
REMARK   78  A    between atoms: _209  and  _211
REMARK   79  A    between atoms: _211  and  _212
REMARK   80  A    between atoms: _211  and  _214
REMARK   81  A    between atoms: _214  and  _215
REMARK   82  A    between atoms: _225  and  _227
REMARK   83  A    between atoms: _227  and  _228
REMARK   84  A    between atoms: _227  and  _230
REMARK   85  A    between atoms: _230  and  _231
REMARK   86  A    between atoms: _236  and  _238
REMARK   87  A    between atoms: _238  and  _239
REMARK   88  A    between atoms: _238  and  _241
REMARK   89  A    between atoms: _241  and  _242
REMARK   90  A    between atoms: _242  and  _243
REMARK   91  A    between atoms: _246  and  _248
REMARK   92  A    between atoms: _248  and  _249
REMARK   93  A    between atoms: _248  and  _251
REMARK   94  A    between atoms: _251  and  _252
REMARK   95  A    between atoms: _254  and  _256
REMARK   96  A    between atoms: _256  and  _257
REMARK   97  A    between atoms: _256  and  _259
REMARK   98  A    between atoms: _259  and  _260
REMARK   99  A    between atoms: _265  and  _267
REMARK  100  A    between atoms: _267  and  _268
REMARK  101  A    between atoms: _267  and  _270
REMARK  102  A    between atoms: _270  and  _271
REMARK  103  A    between atoms: _274  and  _276
REMARK  104  A    between atoms: _276  and  _277
REMARK  105  A    between atoms: _276  and  _279
REMARK  106  A    between atoms: _279  and  _280
REMARK  107  A    between atoms: _285  and  _287
REMARK  108  A    between atoms: _287  and  _288
REMARK  109  A    between atoms: _287  and  _290
REMARK  110  A    between atoms: _290  and  _291
REMARK  111  A    between atoms: _294  and  _296
REMARK  112  A    between atoms: _296  and  _297
REMARK  113  A    between atoms: _296  and  _299
REMARK  114  A    between atoms: _299  and  _300
REMARK  115  A    between atoms: _310  and  _312
REMARK  116  A    between atoms: _312  and  _313
REMARK  117  A    between atoms: _312  and  _315
REMARK  118  A    between atoms: _315  and  _316
REMARK  119  A    between atoms: _316  and  _317
REMARK  120  A    between atoms: _322  and  _324
REMARK  121  A    between atoms: _324  and  _325
REMARK  122  A    between atoms: _324  and  _327
REMARK  123  A    between atoms: _327  and  _328
REMARK  124  A    between atoms: _331  and  _333
REMARK  125  A    between atoms: _333  and  _334
REMARK  126  A    between atoms: _333  and  _336
REMARK  127  A    between atoms: _336  and  _337
REMARK  128  A    between atoms: _337  and  _338
REMARK  129  A    between atoms: _338  and  _339
REMARK  130  A    between atoms: _339  and  _340
REMARK  131  A    between atoms: _344  and  _346
REMARK  132  A    between atoms: _346  and  _347
REMARK  133  A    between atoms: _346  and  _349
REMARK  134  A    between atoms: _349  and  _350
REMARK  135  A    between atoms: _355  and  _356
REMARK  136  A    between atoms: _358  and  _360
REMARK  137  A    between atoms: _360  and  _361
REMARK  138  A    between atoms: _360  and  _363
REMARK  139  A    between atoms: _363  and  _364
REMARK  140  A    between atoms: _364  and  _365
REMARK  141  A    between atoms: _365  and  _366
REMARK                            x       y       z     vdW  Elec       q    Type
REMARK                         _______ _______ _______ _____ _____    ______ ____
ROOT
ATOM      1  CB  ASN A   1       0.659  -0.163  55.251  0.00  0.00    +0.110 C 
ENDROOT
BRANCH   1   2
ATOM      2  CG  ASN A   1       2.172  -0.055  55.107  0.00  0.00    +0.221 C 
ATOM      3  OD1 ASN A   1       2.897  -1.027  55.340  0.00  0.00    -0.275 OA
ATOM      4  ND2 ASN A   1       2.656   1.127  54.711  0.00  0.00    -0.329 N 
ATOM      5 HD21 ASN A   1       3.681   1.254  54.588  0.00  0.00    +0.145 HD
ATOM      6 HD22 ASN A   1       2.008   1.919  54.526  0.00  0.00    +0.145 HD
ENDBRANCH   1   2
BRANCH   1   7
ATOM      7  CA  ASN A   1       0.026  -0.998  54.135  0.00  0.00    +0.142 C 
BRANCH   7   8
ATOM      8  N   ASN A   1      -0.434  -0.143  53.056  0.00  0.00    -0.239 NA
ATOM      9  H   ASN A   1      -0.478   0.887  53.193  0.00  0.00    +0.142 HD
ENDBRANCH   7   8
BRANCH   7  10
ATOM     10  C   ASN A   1      -1.111  -1.854  54.671  0.00  0.00    +0.225 C 
ATOM     11  O   ASN A   1      -0.907  -3.001  55.069  0.00  0.00    -0.287 OA
ENDBRANCH   7  10
ENDBRANCH   1   7
TORSDOF 4
REMARK  Name = ../refined-set-2016/1gwv/1gwv_pocket.pdb
REMARK  141 active torsions:
REMARK  status: ('A' for Active; 'I' for Inactive)
REMARK    1  A    between atoms: _1  and  _3
REMARK    2  A    between atoms: _3  and  _4
REMARK    3  A    between atoms: _3  and  _6
REMARK    4  A    between atoms: _6  and  _7
REMARK    5  A    between atoms: _17  and  _19
REMARK    6  A    between atoms: _19  and  _20
REMARK    7  A    between atoms: _19  and  _22
REMARK    8  A    between atoms: _22  and  _23
REMARK    9  A    between atoms: _23  and  _24
REMARK   10  A    between atoms: _24  and  _25
REMARK   11  A    between atoms: _34  and  _36
REMARK   12  A    between atoms: _36  and  _37
REMARK   13  A    between atoms: _36  and  _39
REMARK   14  A    between atoms: _39  and  _40
REMARK   15  A    between atoms: _40  and  _42
REMARK   16  A    between atoms: _42  and  MN_375
REMARK   17  A    between atoms: _43  and  _45
REMARK   18  A    between atoms: _45  and  _46
REMARK   19  A    between atoms: _45  and  _48
REMARK   20  A    between atoms: _48  and  _49
REMARK   21  A    between atoms: _49  and  _50
REMARK   22  A    between atoms: _50  and  MN_375
REMARK   23  A    between atoms: _52  and  _54
REMARK   24  A    between atoms: _54  and  _55
REMARK   25  A    between atoms: _54  and  _57
REMARK   26  A    between atoms: _57  and  _58
REMARK   27  A    between atoms: _58  and  _59
REMARK   28  A    between atoms: _64  and  _66
REMARK   29  A    between atoms: _66  and  _67
REMARK   30  A    between atoms: _70  and  _72
REMARK   31  A    between atoms: _72  and  _73
REMARK   32  A    between atoms: _72  and  _75
REMARK   33  A    between atoms: _75  and  _76
REMARK   34  A    between atoms: _86  and  _88
REMARK   35  A    between atoms: _88  and  _89
REMARK   36  A    between atoms: _88  and  _91
REMARK   37  A    between atoms: _91  and  _92
REMARK   38  A    between atoms: _102  and  _104
REMARK   39  A    between atoms: _104  and  _105
REMARK   40  A    between atoms: _104  and  _107
REMARK   41  A    between atoms: _107  and  _108
REMARK   42  A    between atoms: _111  and  _113
REMARK   43  A    between atoms: _113  and  _114
REMARK   44  A    between atoms: _113  and  _116
REMARK   45  A    between atoms: _116  and  _117
REMARK   46  A    between atoms: _123  and  _125
REMARK   47  A    between atoms: _125  and  _126
REMARK   48  A    between atoms: _125  and  _128
REMARK   49  A    between atoms: _128  and  _129
REMARK   50  A    between atoms: _132  and  _134
REMARK   51  A    between atoms: _134  and  _135
REMARK   52  A    between atoms: _134  and  _137
REMARK   53  A    between atoms: _137  and  _138
REMARK   54  A    between atoms: _143  and  _144
REMARK   55  A    between atoms: _146  and  _148
REMARK   56  A    between atoms: _148  and  _149
REMARK   57  A    between atoms: _148  and  _151
REMARK   58  A    between atoms: _151  and  _152
REMARK   59  A    between atoms: _157  and  _158
REMARK   60  A    between atoms: _160  and  _162
REMARK   61  A    between atoms: _162  and  _163
REMARK   62  A    between atoms: _162  and  _165
REMARK   63  A    between atoms: _165  and  _166
REMARK   64  A    between atoms: _171  and  _172
REMARK   65  A    between atoms: _174  and  _176
REMARK   66  A    between atoms: _176  and  _177
REMARK   67  A    between atoms: _176  and  _179
REMARK   68  A    between atoms: _179  and  _180
REMARK   69  A    between atoms: _185  and  _187
REMARK   70  A    between atoms: _187  and  _188
REMARK   71  A    between atoms: _191  and  _193
REMARK   72  A    between atoms: _193  and  _194
REMARK   73  A    between atoms: _197  and  _199
REMARK   74  A    between atoms: _199  and  _200
REMARK   75  A    between atoms: _199  and  _202
REMARK   76  A    between atoms: _202  and  _203
REMARK   77  A    between atoms: _203  and  _204
REMARK   78  A    between atoms: _209  and  _211
REMARK   79  A    between atoms: _211  and  _212
REMARK   80  A    between atoms: _211  and  _214
REMARK   81  A    between atoms: _214  and  _215
REMARK   82  A    between atoms: _225  and  _227
REMARK   83  A    between atoms: _227  and  _228
REMARK   84  A    between atoms: _227  and  _230
REMARK   85  A    between atoms: _230  and  _231
REMARK   86  A    between atoms: _236  and  _238
REMARK   87  A    between atoms: _238  and  _239
REMARK   88  A    between atoms: _238  and  _241
REMARK   89  A    between atoms: _241  and  _242
REMARK   90  A    between atoms: _242  and  _243
REMARK   91  A    between atoms: _246  and  _248
REMARK   92  A    between atoms: _248  and  _249
REMARK   93  A    between atoms: _248  and  _251
REMARK   94  A    between atoms: _251  and  _252
REMARK   95  A    between atoms: _254  and  _256
REMARK   96  A    between atoms: _256  and  _257
REMARK   97  A    between atoms: _256  and  _259
REMARK   98  A    between atoms: _259  and  _260
REMARK   99  A    between atoms: _265  and  _267
REMARK  100  A    between atoms: _267  and  _268
REMARK  101  A    between atoms: _267  and  _270
REMARK  102  A    between atoms: _270  and  _271
REMARK  103  A    between atoms: _274  and  _276
REMARK  104  A    between atoms: _276  and  _277
REMARK  105  A    between atoms: _276  and  _279
REMARK  106  A    between atoms: _279  and  _280
REMARK  107  A    between atoms: _285  and  _287
REMARK  108  A    between atoms: _287  and  _288
REMARK  109  A    between atoms: _287  and  _290
REMARK  110  A    between atoms: _290  and  _291
REMARK  111  A    between atoms: _294  and  _296
REMARK  112  A    between atoms: _296  and  _297
REMARK  113  A    between atoms: _296  and  _299
REMARK  114  A    between atoms: _299  and  _300
REMARK  115  A    between atoms: _310  and  _312
REMARK  116  A    between atoms: _312  and  _313
REMARK  117  A    between atoms: _312  and  _315
REMARK  118  A    between atoms: _315  and  _316
REMARK  119  A    between atoms: _316  and  _317
REMARK  120  A    between atoms: _322  and  _324
REMARK  121  A    between atoms: _324  and  _325
REMARK  122  A    between atoms: _324  and  _327
REMARK  123  A    between atoms: _327  and  _328
REMARK  124  A    between atoms: _331  and  _333
REMARK  125  A    between atoms: _333  and  _334
REMARK  126  A    between atoms: _333  and  _336
REMARK  127  A    between atoms: _336  and  _337
REMARK  128  A    between atoms: _337  and  _338
REMARK  129  A    between atoms: _338  and  _339
REMARK  130  A    between atoms: _339  and  _340
REMARK  131  A    between atoms: _344  and  _346
REMARK  132  A    between atoms: _346  and  _347
REMARK  133  A    between atoms: _346  and  _349
REMARK  134  A    between atoms: _349  and  _350
REMARK  135  A    between atoms: _355  and  _356
REMARK  136  A    between atoms: _358  and  _360
REMARK  137  A    between atoms: _360  and  _361
REMARK  138  A    between atoms: _360  and  _363
REMARK  139  A    between atoms: _363  and  _364
REMARK  140  A    between atoms: _364  and  _365
REMARK  141  A    between atoms: _365  and  _366
REMARK                            x       y       z     vdW  Elec       q    Type
REMARK                         _______ _______ _______ _____ _____    ______ ____
ROOT
ATOM      1  CA  ASP A   1      17.323   7.713  51.994  0.00  0.00    +0.144 C 
ENDROOT
BRANCH   1   2
ATOM      2  N   ASP A   1      17.281   6.280  51.701  0.00  0.00    -0.239 NA
ATOM      3  H   ASP A   1      17.272   5.601  52.489  0.00  0.00    +0.142 HD
ENDBRANCH   1   2
BRANCH   1   4
ATOM      4  C   ASP A   1      18.687   8.005  52.641  0.00  0.00    +0.225 C 
ATOM      5  O   ASP A   1      18.917   7.687  53.808  0.00  0.00    -0.287 OA
ENDBRANCH   1   4
BRANCH   1   6
ATOM      6  CB  ASP A   1      16.177   8.109  52.941  0.00  0.00    +0.139 C 
BRANCH   6   7
ATOM      7  CG  ASP A   1      16.259   9.565  53.413  0.00  0.00    +0.367 C 
ATOM      8  OD2 ASP A   1      15.506   9.915  54.345  0.00  0.00    -0.246 OA
ATOM      9  OD1 ASP A   1      17.054  10.362  52.862  0.00  0.00    -0.246 OA
ENDBRANCH   6   7
ENDBRANCH   1   6
TORSDOF 4
REMARK  Name = ../refined-set-2016/1gwv/1gwv_pocket.pdb
REMARK  141 active torsions:
REMARK  status: ('A' for Active; 'I' for Inactive)
REMARK    1  A    between atoms: _1  and  _3
REMARK    2  A    between atoms: _3  and  _4
REMARK    3  A    between atoms: _3  and  _6
REMARK    4  A    between atoms: _6  and  _7
REMARK    5  A    between atoms: _17  and  _19
REMARK    6  A    between atoms: _19  and  _20
REMARK    7  A    between atoms: _19  and  _22
REMARK    8  A    between atoms: _22  and  _23
REMARK    9  A    between atoms: _23  and  _24
REMARK   10  A    between atoms: _24  and  _25
REMARK   11  A    between atoms: _34  and  _36
REMARK   12  A    between atoms: _36  and  _37
REMARK   13  A    between atoms: _36  and  _39
REMARK   14  A    between atoms: _39  and  _40
REMARK   15  A    between atoms: _40  and  _42
REMARK   16  A    between atoms: _42  and  MN_375
REMARK   17  A    between atoms: _43  and  _45
REMARK   18  A    between atoms: _45  and  _46
REMARK   19  A    between atoms: _45  and  _48
REMARK   20  A    between atoms: _48  and  _49
REMARK   21  A    between atoms: _49  and  _50
REMARK   22  A    between atoms: _50  and  MN_375
REMARK   23  A    between atoms: _52  and  _54
REMARK   24  A    between atoms: _54  and  _55
REMARK   25  A    between atoms: _54  and  _57
REMARK   26  A    between atoms: _57  and  _58
REMARK   27  A    between atoms: _58  and  _59
REMARK   28  A    between atoms: _64  and  _66
REMARK   29  A    between atoms: _66  and  _67
REMARK   30  A    between atoms: _70  and  _72
REMARK   31  A    between atoms: _72  and  _73
REMARK   32  A    between atoms: _72  and  _75
REMARK   33  A    between atoms: _75  and  _76
REMARK   34  A    between atoms: _86  and  _88
REMARK   35  A    between atoms: _88  and  _89
REMARK   36  A    between atoms: _88  and  _91
REMARK   37  A    between atoms: _91  and  _92
REMARK   38  A    between atoms: _102  and  _104
REMARK   39  A    between atoms: _104  and  _105
REMARK   40  A    between atoms: _104  and  _107
REMARK   41  A    between atoms: _107  and  _108
REMARK   42  A    between atoms: _111  and  _113
REMARK   43  A    between atoms: _113  and  _114
REMARK   44  A    between atoms: _113  and  _116
REMARK   45  A    between atoms: _116  and  _117
REMARK   46  A    between atoms: _123  and  _125
REMARK   47  A    between atoms: _125  and  _126
REMARK   48  A    between atoms: _125  and  _128
REMARK   49  A    between atoms: _128  and  _129
REMARK   50  A    between atoms: _132  and  _134
REMARK   51  A    between atoms: _134  and  _135
REMARK   52  A    between atoms: _134  and  _137
REMARK   53  A    between atoms: _137  and  _138
REMARK   54  A    between atoms: _143  and  _144
REMARK   55  A    between atoms: _146  and  _148
REMARK   56  A    between atoms: _148  and  _149
REMARK   57  A    between atoms: _148  and  _151
REMARK   58  A    between atoms: _151  and  _152
REMARK   59  A    between atoms: _157  and  _158
REMARK   60  A    between atoms: _160  and  _162
REMARK   61  A    between atoms: _162  and  _163
REMARK   62  A    between atoms: _162  and  _165
REMARK   63  A    between atoms: _165  and  _166
REMARK   64  A    between atoms: _171  and  _172
REMARK   65  A    between atoms: _174  and  _176
REMARK   66  A    between atoms: _176  and  _177
REMARK   67  A    between atoms: _176  and  _179
REMARK   68  A    between atoms: _179  and  _180
REMARK   69  A    between atoms: _185  and  _187
REMARK   70  A    between atoms: _187  and  _188
REMARK   71  A    between atoms: _191  and  _193
REMARK   72  A    between atoms: _193  and  _194
REMARK   73  A    between atoms: _197  and  _199
REMARK   74  A    between atoms: _199  and  _200
REMARK   75  A    between atoms: _199  and  _202
REMARK   76  A    between atoms: _202  and  _203
REMARK   77  A    between atoms: _203  and  _204
REMARK   78  A    between atoms: _209  and  _211
REMARK   79  A    between atoms: _211  and  _212
REMARK   80  A    between atoms: _211  and  _214
REMARK   81  A    between atoms: _214  and  _215
REMARK   82  A    between atoms: _225  and  _227
REMARK   83  A    between atoms: _227  and  _228
REMARK   84  A    between atoms: _227  and  _230
REMARK   85  A    between atoms: _230  and  _231
REMARK   86  A    between atoms: _236  and  _238
REMARK   87  A    between atoms: _238  and  _239
REMARK   88  A    between atoms: _238  and  _241
REMARK   89  A    between atoms: _241  and  _242
REMARK   90  A    between atoms: _242  and  _243
REMARK   91  A    between atoms: _246  and  _248
REMARK   92  A    between atoms: _248  and  _249
REMARK   93  A    between atoms: _248  and  _251
REMARK   94  A    between atoms: _251  and  _252
REMARK   95  A    between atoms: _254  and  _256
REMARK   96  A    between atoms: _256  and  _257
REMARK   97  A    between atoms: _256  and  _259
REMARK   98  A    between atoms: _259  and  _260
REMARK   99  A    between atoms: _265  and  _267
REMARK  100  A    between atoms: _267  and  _268
REMARK  101  A    between atoms: _267  and  _270
REMARK  102  A    between atoms: _270  and  _271
REMARK  103  A    between atoms: _274  and  _276
REMARK  104  A    between atoms: _276  and  _277
REMARK  105  A    between atoms: _276  and  _279
REMARK  106  A    between atoms: _279  and  _280
REMARK  107  A    between atoms: _285  and  _287
REMARK  108  A    between atoms: _287  and  _288
REMARK  109  A    between atoms: _287  and  _290
REMARK  110  A    between atoms: _290  and  _291
REMARK  111  A    between atoms: _294  and  _296
REMARK  112  A    between atoms: _296  and  _297
REMARK  113  A    between atoms: _296  and  _299
REMARK  114  A    between atoms: _299  and  _300
REMARK  115  A    between atoms: _310  and  _312
REMARK  116  A    between atoms: _312  and  _313
REMARK  117  A    between atoms: _312  and  _315
REMARK  118  A    between atoms: _315  and  _316
REMARK  119  A    between atoms: _316  and  _317
REMARK  120  A    between atoms: _322  and  _324
REMARK  121  A    between atoms: _324  and  _325
REMARK  122  A    between atoms: _324  and  _327
REMARK  123  A    between atoms: _327  and  _328
REMARK  124  A    between atoms: _331  and  _333
REMARK  125  A    between atoms: _333  and  _334
REMARK  126  A    between atoms: _333  and  _336
REMARK  127  A    between atoms: _336  and  _337
REMARK  128  A    between atoms: _337  and  _338
REMARK  129  A    between atoms: _338  and  _339
REMARK  130  A    between atoms: _339  and  _340
REMARK  131  A    between atoms: _344  and  _346
REMARK  132  A    between atoms: _346  and  _347
REMARK  133  A    between atoms: _346  and  _349
REMARK  134  A    between atoms: _349  and  _350
REMARK  135  A    between atoms: _355  and  _356
REMARK  136  A    between atoms: _358  and  _360
REMARK  137  A    between atoms: _360  and  _361
REMARK  138  A    between atoms: _360  and  _363
REMARK  139  A    between atoms: _363  and  _364
REMARK  140  A    between atoms: _364  and  _365
REMARK  141  A    between atoms: _365  and  _366
REMARK                            x       y       z     vdW  Elec       q    Type
REMARK                         _______ _______ _______ _____ _____    ______ ____
ROOT
ATOM      1  C   HIS A   1      20.083  10.560  56.266  0.00  0.00    +0.239 C 
ATOM      2  O   HIS A   1      20.466  11.082  57.307  0.00  0.00    -0.274 OA
ATOM      3  N   ILE A   2      19.837   9.259  56.169  0.00  0.00    -0.298 N 
ATOM      4  H   ILE A   2      19.503   8.875  55.262  0.00  0.00    +0.150 HD
ENDROOT
BRANCH   1   5
ATOM      5  CA  HIS A   1      19.849  11.400  55.009  0.00  0.00    +0.151 C 
BRANCH   5   6
ATOM      6  N   HIS A   1      19.889  10.552  53.826  0.00  0.00    -0.238 NA
ATOM      7  H   HIS A   1      19.074  10.519  53.181  0.00  0.00    +0.142 HD
ENDBRANCH   5   6
BRANCH   5   8
ATOM      8  CB  HIS A   1      18.499  12.100  55.126  0.00  0.00    +0.074 C 
BRANCH   8   9
ATOM      9  CG  HIS A   1      18.405  13.023  56.300  0.00  0.00    +0.082 A 
ATOM     10  CD2 HIS A   1      17.591  13.011  57.383  0.00  0.00    +0.115 A 
ATOM     11  NE2 HIS A   1      17.945  14.082  58.169  0.00  0.00    -0.221 NA
ATOM     12  CE1 HIS A   1      18.940  14.730  57.588  0.00  0.00    +0.199 A 
ATOM     13  ND1 HIS A   1      19.237  14.112  56.458  0.00  0.00    -0.227 NA
ENDBRANCH   8   9
ENDBRANCH   5   8
ENDBRANCH   1   5
BRANCH   3  14
ATOM     14  CA  ILE A   2      20.022   8.350  57.299  0.00  0.00    +0.137 C 
BRANCH  14  15
ATOM     15  C   ILE A   2      21.506   8.057  57.435  0.00  0.00    +0.227 C 
ATOM     16  O   ILE A   2      21.982   7.675  58.503  0.00  0.00    -0.286 OA
ENDBRANCH  14  15
BRANCH  14  17
ATOM     17  CB  ILE A   2      19.287   6.995  57.067  0.00  0.00    +0.026 C 
ATOM     18  CG2 ILE A   2      19.603   6.017  58.186  0.00  0.00    +0.002 C 
BRANCH  17  19
ATOM     19  CG1 ILE A   2      17.780   7.216  56.981  0.00  0.00    +0.002 C 
ATOM     20  CD1 ILE A   2      17.022   6.000  56.503  0.00  0.00    +0.000 C 
ENDBRANCH  17  19
ENDBRANCH  14  17
ENDBRANCH   3  14
TORSDOF 8
REMARK  Name = ../refined-set-2016/1gwv/1gwv_pocket.pdb
REMARK  141 active torsions:
REMARK  status: ('A' for Active; 'I' for Inactive)
REMARK    1  A    between atoms: _1  and  _3
REMARK    2  A    between atoms: _3  and  _4
REMARK    3  A    between atoms: _3  and  _6
REMARK    4  A    between atoms: _6  and  _7
REMARK    5  A    between atoms: _17  and  _19
REMARK    6  A    between atoms: _19  and  _20
REMARK    7  A    between atoms: _19  and  _22
REMARK    8  A    between atoms: _22  and  _23
REMARK    9  A    between atoms: _23  and  _24
REMARK   10  A    between atoms: _24  and  _25
REMARK   11  A    between atoms: _34  and  _36
REMARK   12  A    between atoms: _36  and  _37
REMARK   13  A    between atoms: _36  and  _39
REMARK   14  A    between atoms: _39  and  _40
REMARK   15  A    between atoms: _40  and  _42
REMARK   16  A    between atoms: _42  and  MN_375
REMARK   17  A    between atoms: _43  and  _45
REMARK   18  A    between atoms: _45  and  _46
REMARK   19  A    between atoms: _45  and  _48
REMARK   20  A    between atoms: _48  and  _49
REMARK   21  A    between atoms: _49  and  _50
REMARK   22  A    between atoms: _50  and  MN_375
REMARK   23  A    between atoms: _52  and  _54
REMARK   24  A    between atoms: _54  and  _55
REMARK   25  A    between atoms: _54  and  _57
REMARK   26  A    between atoms: _57  and  _58
REMARK   27  A    between atoms: _58  and  _59
REMARK   28  A    between atoms: _64  and  _66
REMARK   29  A    between atoms: _66  and  _67
REMARK   30  A    between atoms: _70  and  _72
REMARK   31  A    between atoms: _72  and  _73
REMARK   32  A    between atoms: _72  and  _75
REMARK   33  A    between atoms: _75  and  _76
REMARK   34  A    between atoms: _86  and  _88
REMARK   35  A    between atoms: _88  and  _89
REMARK   36  A    between atoms: _88  and  _91
REMARK   37  A    between atoms: _91  and  _92
REMARK   38  A    between atoms: _102  and  _104
REMARK   39  A    between atoms: _104  and  _105
REMARK   40  A    between atoms: _104  and  _107
REMARK   41  A    between atoms: _107  and  _108
REMARK   42  A    between atoms: _111  and  _113
REMARK   43  A    between atoms: _113  and  _114
REMARK   44  A    between atoms: _113  and  _116
REMARK   45  A    between atoms: _116  and  _117
REMARK   46  A    between atoms: _123  and  _125
REMARK   47  A    between atoms: _125  and  _126
REMARK   48  A    between atoms: _125  and  _128
REMARK   49  A    between atoms: _128  and  _129
REMARK   50  A    between atoms: _132  and  _134
REMARK   51  A    between atoms: _134  and  _135
REMARK   52  A    between atoms: _134  and  _137
REMARK   53  A    between atoms: _137  and  _138
REMARK   54  A    between atoms: _143  and  _144
REMARK   55  A    between atoms: _146  and  _148
REMARK   56  A    between atoms: _148  and  _149
REMARK   57  A    between atoms: _148  and  _151
REMARK   58  A    between atoms: _151  and  _152
REMARK   59  A    between atoms: _157  and  _158
REMARK   60  A    between atoms: _160  and  _162
REMARK   61  A    between atoms: _162  and  _163
REMARK   62  A    between atoms: _162  and  _165
REMARK   63  A    between atoms: _165  and  _166
REMARK   64  A    between atoms: _171  and  _172
REMARK   65  A    between atoms: _174  and  _176
REMARK   66  A    between atoms: _176  and  _177
REMARK   67  A    between atoms: _176  and  _179
REMARK   68  A    between atoms: _179  and  _180
REMARK   69  A    between atoms: _185  and  _187
REMARK   70  A    between atoms: _187  and  _188
REMARK   71  A    between atoms: _191  and  _193
REMARK   72  A    between atoms: _193  and  _194
REMARK   73  A    between atoms: _197  and  _199
REMARK   74  A    between atoms: _199  and  _200
REMARK   75  A    between atoms: _199  and  _202
REMARK   76  A    between atoms: _202  and  _203
REMARK   77  A    between atoms: _203  and  _204
REMARK   78  A    between atoms: _209  and  _211
REMARK   79  A    between atoms: _211  and  _212
REMARK   80  A    between atoms: _211  and  _214
REMARK   81  A    between atoms: _214  and  _215
REMARK   82  A    between atoms: _225  and  _227
REMARK   83  A    between atoms: _227  and  _228
REMARK   84  A    between atoms: _227  and  _230
REMARK   85  A    between atoms: _230  and  _231
REMARK   86  A    between atoms: _236  and  _238
REMARK   87  A    between atoms: _238  and  _239
REMARK   88  A    between atoms: _238  and  _241
REMARK   89  A    between atoms: _241  and  _242
REMARK   90  A    between atoms: _242  and  _243
REMARK   91  A    between atoms: _246  and  _248
REMARK   92  A    between atoms: _248  and  _249
REMARK   93  A    between atoms: _248  and  _251
REMARK   94  A    between atoms: _251  and  _252
REMARK   95  A    between atoms: _254  and  _256
REMARK   96  A    between atoms: _256  and  _257
REMARK   97  A    between atoms: _256  and  _259
REMARK   98  A    between atoms: _259  and  _260
REMARK   99  A    between atoms: _265  and  _267
REMARK  100  A    between atoms: _267  and  _268
REMARK  101  A    between atoms: _267  and  _270
REMARK  102  A    between atoms: _270  and  _271
REMARK  103  A    between atoms: _274  and  _276
REMARK  104  A    between atoms: _276  and  _277
REMARK  105  A    between atoms: _276  and  _279
REMARK  106  A    between atoms: _279  and  _280
REMARK  107  A    between atoms: _285  and  _287
REMARK  108  A    between atoms: _287  and  _288
REMARK  109  A    between atoms: _287  and  _290
REMARK  110  A    between atoms: _290  and  _291
REMARK  111  A    between atoms: _294  and  _296
REMARK  112  A    between atoms: _296  and  _297
REMARK  113  A    between atoms: _296  and  _299
REMARK  114  A    between atoms: _299  and  _300
REMARK  115  A    between atoms: _310  and  _312
REMARK  116  A    between atoms: _312  and  _313
REMARK  117  A    between atoms: _312  and  _315
REMARK  118  A    between atoms: _315  and  _316
REMARK  119  A    between atoms: _316  and  _317
REMARK  120  A    between atoms: _322  and  _324
REMARK  121  A    between atoms: _324  and  _325
REMARK  122  A    between atoms: _324  and  _327
REMARK  123  A    between atoms: _327  and  _328
REMARK  124  A    between atoms: _331  and  _333
REMARK  125  A    between atoms: _333  and  _334
REMARK  126  A    between atoms: _333  and  _336
REMARK  127  A    between atoms: _336  and  _337
REMARK  128  A    between atoms: _337  and  _338
REMARK  129  A    between atoms: _338  and  _339
REMARK  130  A    between atoms: _339  and  _340
REMARK  131  A    between atoms: _344  and  _346
REMARK  132  A    between atoms: _346  and  _347
REMARK  133  A    between atoms: _346  and  _349
REMARK  134  A    between atoms: _349  and  _350
REMARK  135  A    between atoms: _355  and  _356
REMARK  136  A    between atoms: _358  and  _360
REMARK  137  A    between atoms: _360  and  _361
REMARK  138  A    between atoms: _360  and  _363
REMARK  139  A    between atoms: _363  and  _364
REMARK  140  A    between atoms: _364  and  _365
REMARK  141  A    between atoms: _365  and  _366
REMARK                            x       y       z     vdW  Elec       q    Type
REMARK                         _______ _______ _______ _____ _____    ______ ____
ROOT
ATOM      1  CA  GLN A   2      15.285  13.131  46.563  0.00  0.00    +0.149 C 
ENDROOT
BRANCH   1   2
ATOM      2  C   GLN A   2      14.999  13.897  47.848  0.00  0.00    +0.241 C 
ATOM      3  O   GLN A   2      14.077  13.552  48.590  0.00  0.00    -0.273 OA
ATOM      4  N   THR A   3      15.802  14.914  48.128  0.00  0.00    -0.295 N 
ATOM      5  H   THR A   3      16.594  15.137  47.492  0.00  0.00    +0.150 HD
BRANCH   4   6
ATOM      6  CA  THR A   3      15.583  15.721  49.320  0.00  0.00    +0.176 C 
BRANCH   6   7
ATOM      7  C   THR A   3      14.217  16.386  49.175  0.00  0.00    +0.243 C 
ATOM      8  N   LYS A   4      13.435  16.388  50.253  0.00  0.00    -0.298 N 
ATOM      9  H   LYS A   4      13.779  15.955  51.134  0.00  0.00    +0.150 HD
ATOM     10  O   THR A   3      13.879  16.886  48.098  0.00  0.00    -0.273 OA
BRANCH   8  11
ATOM     11  CA  LYS A   4      12.105  16.986  50.221  0.00  0.00    +0.137 C 
BRANCH  11  12
ATOM     12  C   LYS A   4      12.168  18.505  49.992  0.00  0.00    +0.227 C 
ATOM     13  O   LYS A   4      12.996  19.203  50.579  0.00  0.00    -0.286 OA
ENDBRANCH  11  12
BRANCH  11  14
ATOM     14  CB  LYS A   4      11.337  16.668  51.520  0.00  0.00    +0.028 C 
BRANCH  14  15
ATOM     15  CG  LYS A   4      11.225  15.160  51.868  0.00  0.00    -0.000 C 
BRANCH  15  16
ATOM     16  CD  LYS A   4      10.595  14.309  50.753  0.00  0.00    -0.024 C 
BRANCH  16  17
ATOM     17  CE  LYS A   4      10.403  12.837  51.188  0.00  0.00    -0.086 C 
BRANCH  17  18
ATOM     18  NZ  LYS A   4       9.896  11.898  50.120  0.00  0.00    +0.380 N 
ATOM     19  HZ1 LYS A   4       9.804  10.941  50.517  0.00  0.00    -0.089 HD
ATOM     20  HZ2 LYS A   4       8.968  12.226  49.784  0.00  0.00    -0.089 HD
ATOM     21  HZ3 LYS A   4      10.568  11.882  49.326  0.00  0.00    -0.089 HD
ENDBRANCH  17  18
ENDBRANCH  16  17
ENDBRANCH  15  16
ENDBRANCH  14  15
ENDBRANCH  11  14
ENDBRANCH   8  11
ENDBRANCH   6   7
BRANCH   6  22
ATOM     22  CB  THR A   3      16.646  16.818  49.457  0.00  0.00    +0.137 C 
ATOM     23  CG2 THR A   3      16.353  17.675  50.687  0.00  0.00    +0.034 C 
BRANCH  22  24
ATOM     24  OG1 THR A   3      17.946  16.219  49.579  0.00  0.00    -0.382 OA
ATOM     25  HG1 THR A   3      18.629  16.930  49.667  0.00  0.00    +0.210 HD
ENDBRANCH  22  24
ENDBRANCH   6  22
ENDBRANCH   4   6
ENDBRANCH   1   2
BRANCH   1  28
ATOM     26  C   TRP A   1      15.774  10.932  47.440  0.00  0.00    +0.239 C 
ATOM     27  O   TRP A   1      16.947  11.244  47.662  0.00  0.00    -0.274 OA
ATOM     28  N   GLN A   2      14.905  11.764  46.883  0.00  0.00    -0.297 N 
ATOM     29  H   GLN A   2      13.941  11.436  46.673  0.00  0.00    +0.150 HD
BRANCH  26  30
ATOM     30  CA  TRP A   1      15.232   9.553  47.815  0.00  0.00    +0.149 C 
BRANCH  30  31
ATOM     31  N   TRP A   1      16.229   8.501  47.673  0.00  0.00    -0.238 NA
ATOM     32  H   TRP A   1      16.633   8.074  48.531  0.00  0.00    +0.142 HD
ENDBRANCH  30  31
BRANCH  30  33
ATOM     33  CB  TRP A   1      14.765   9.662  49.264  0.00  0.00    +0.054 C 
BRANCH  33  34
ATOM     34  CG  TRP A   1      14.124   8.464  49.889  0.00  0.00    -0.002 A 
ATOM     35  CD2 TRP A   1      13.296   8.479  51.048  0.00  0.00    +0.013 A 
ATOM     36  CE3 TRP A   1      12.790   9.502  51.861  0.00  0.00    +0.001 A 
ATOM     37  CZ3 TRP A   1      12.006   9.164  52.938  0.00  0.00    +0.000 A 
ATOM     38  CH2 TRP A   1      11.712   7.814  53.228  0.00  0.00    +0.001 A 
ATOM     39  CZ2 TRP A   1      12.194   6.794  52.450  0.00  0.00    +0.017 A 
ATOM     40  CE2 TRP A   1      12.988   7.140  51.360  0.00  0.00    +0.056 A 
ATOM     41  NE1 TRP A   1      13.600   6.347  50.425  0.00  0.00    -0.352 N 
ATOM     42  HE1 TRP A   1      13.555   5.309  50.389  0.00  0.00    +0.166 HD
ATOM     43  CD1 TRP A   1      14.281   7.149  49.545  0.00  0.00    +0.068 A 
ENDBRANCH  33  34
ENDBRANCH  30  33
ENDBRANCH  26  30
ENDBRANCH   1  28
BRANCH   1  44
ATOM     44  CB  GLN A   2      14.419  13.694  45.438  0.00  0.00    +0.039 C 
BRANCH  44  45
ATOM     45  CG  GLN A   2      14.771  13.196  44.050  0.00  0.00    +0.087 C 
BRANCH  45  46
ATOM     46  CD  GLN A   2      15.954  13.929  43.445  0.00  0.00    +0.219 C 
ATOM     47  NE2 GLN A   2      16.733  14.597  44.287  0.00  0.00    -0.329 N 
ATOM     48 HE21 GLN A   2      16.514  14.604  45.304  0.00  0.00    +0.145 HD
ATOM     49 HE22 GLN A   2      17.562  15.114  43.930  0.00  0.00    +0.145 HD
ATOM     50  OE1 GLN A   2      16.168  13.889  42.232  0.00  0.00    -0.275 OA
ENDBRANCH  45  46
ENDBRANCH  44  45
ENDBRANCH   1  44
TORSDOF 20
REMARK  Name = ../refined-set-2016/1gwv/1gwv_pocket.pdb
REMARK  141 active torsions:
REMARK  status: ('A' for Active; 'I' for Inactive)
REMARK    1  A    between atoms: _1  and  _3
REMARK    2  A    between atoms: _3  and  _4
REMARK    3  A    between atoms: _3  and  _6
REMARK    4  A    between atoms: _6  and  _7
REMARK    5  A    between atoms: _17  and  _19
REMARK    6  A    between atoms: _19  and  _20
REMARK    7  A    between atoms: _19  and  _22
REMARK    8  A    between atoms: _22  and  _23
REMARK    9  A    between atoms: _23  and  _24
REMARK   10  A    between atoms: _24  and  _25
REMARK   11  A    between atoms: _34  and  _36
REMARK   12  A    between atoms: _36  and  _37
REMARK   13  A    between atoms: _36  and  _39
REMARK   14  A    between atoms: _39  and  _40
REMARK   15  A    between atoms: _40  and  _42
REMARK   16  A    between atoms: _42  and  MN_375
REMARK   17  A    between atoms: _43  and  _45
REMARK   18  A    between atoms: _45  and  _46
REMARK   19  A    between atoms: _45  and  _48
REMARK   20  A    between atoms: _48  and  _49
REMARK   21  A    between atoms: _49  and  _50
REMARK   22  A    between atoms: _50  and  MN_375
REMARK   23  A    between atoms: _52  and  _54
REMARK   24  A    between atoms: _54  and  _55
REMARK   25  A    between atoms: _54  and  _57
REMARK   26  A    between atoms: _57  and  _58
REMARK   27  A    between atoms: _58  and  _59
REMARK   28  A    between atoms: _64  and  _66
REMARK   29  A    between atoms: _66  and  _67
REMARK   30  A    between atoms: _70  and  _72
REMARK   31  A    between atoms: _72  and  _73
REMARK   32  A    between atoms: _72  and  _75
REMARK   33  A    between atoms: _75  and  _76
REMARK   34  A    between atoms: _86  and  _88
REMARK   35  A    between atoms: _88  and  _89
REMARK   36  A    between atoms: _88  and  _91
REMARK   37  A    between atoms: _91  and  _92
REMARK   38  A    between atoms: _102  and  _104
REMARK   39  A    between atoms: _104  and  _105
REMARK   40  A    between atoms: _104  and  _107
REMARK   41  A    between atoms: _107  and  _108
REMARK   42  A    between atoms: _111  and  _113
REMARK   43  A    between atoms: _113  and  _114
REMARK   44  A    between atoms: _113  and  _116
REMARK   45  A    between atoms: _116  and  _117
REMARK   46  A    between atoms: _123  and  _125
REMARK   47  A    between atoms: _125  and  _126
REMARK   48  A    between atoms: _125  and  _128
REMARK   49  A    between atoms: _128  and  _129
REMARK   50  A    between atoms: _132  and  _134
REMARK   51  A    between atoms: _134  and  _135
REMARK   52  A    between atoms: _134  and  _137
REMARK   53  A    between atoms: _137  and  _138
REMARK   54  A    between atoms: _143  and  _144
REMARK   55  A    between atoms: _146  and  _148
REMARK   56  A    between atoms: _148  and  _149
REMARK   57  A    between atoms: _148  and  _151
REMARK   58  A    between atoms: _151  and  _152
REMARK   59  A    between atoms: _157  and  _158
REMARK   60  A    between atoms: _160  and  _162
REMARK   61  A    between atoms: _162  and  _163
REMARK   62  A    between atoms: _162  and  _165
REMARK   63  A    between atoms: _165  and  _166
REMARK   64  A    between atoms: _171  and  _172
REMARK   65  A    between atoms: _174  and  _176
REMARK   66  A    between atoms: _176  and  _177
REMARK   67  A    between atoms: _176  and  _179
REMARK   68  A    between atoms: _179  and  _180
REMARK   69  A    between atoms: _185  and  _187
REMARK   70  A    between atoms: _187  and  _188
REMARK   71  A    between atoms: _191  and  _193
REMARK   72  A    between atoms: _193  and  _194
REMARK   73  A    between atoms: _197  and  _199
REMARK   74  A    between atoms: _199  and  _200
REMARK   75  A    between atoms: _199  and  _202
REMARK   76  A    between atoms: _202  and  _203
REMARK   77  A    between atoms: _203  and  _204
REMARK   78  A    between atoms: _209  and  _211
REMARK   79  A    between atoms: _211  and  _212
REMARK   80  A    between atoms: _211  and  _214
REMARK   81  A    between atoms: _214  and  _215
REMARK   82  A    between atoms: _225  and  _227
REMARK   83  A    between atoms: _227  and  _228
REMARK   84  A    between atoms: _227  and  _230
REMARK   85  A    between atoms: _230  and  _231
REMARK   86  A    between atoms: _236  and  _238
REMARK   87  A    between atoms: _238  and  _239
REMARK   88  A    between atoms: _238  and  _241
REMARK   89  A    between atoms: _241  and  _242
REMARK   90  A    between atoms: _242  and  _243
REMARK   91  A    between atoms: _246  and  _248
REMARK   92  A    between atoms: _248  and  _249
REMARK   93  A    between atoms: _248  and  _251
REMARK   94  A    between atoms: _251  and  _252
REMARK   95  A    between atoms: _254  and  _256
REMARK   96  A    between atoms: _256  and  _257
REMARK   97  A    between atoms: _256  and  _259
REMARK   98  A    between atoms: _259  and  _260
REMARK   99  A    between atoms: _265  and  _267
REMARK  100  A    between atoms: _267  and  _268
REMARK  101  A    between atoms: _267  and  _270
REMARK  102  A    between atoms: _270  and  _271
REMARK  103  A    between atoms: _274  and  _276
REMARK  104  A    between atoms: _276  and  _277
REMARK  105  A    between atoms: _276  and  _279
REMARK  106  A    between atoms: _279  and  _280
REMARK  107  A    between atoms: _285  and  _287
REMARK  108  A    between atoms: _287  and  _288
REMARK  109  A    between atoms: _287  and  _290
REMARK  110  A    between atoms: _290  and  _291
REMARK  111  A    between atoms: _294  and  _296
REMARK  112  A    between atoms: _296  and  _297
REMARK  113  A    between atoms: _296  and  _299
REMARK  114  A    between atoms: _299  and  _300
REMARK  115  A    between atoms: _310  and  _312
REMARK  116  A    between atoms: _312  and  _313
REMARK  117  A    between atoms: _312  and  _315
REMARK  118  A    between atoms: _315  and  _316
REMARK  119  A    between atoms: _316  and  _317
REMARK  120  A    between atoms: _322  and  _324
REMARK  121  A    between atoms: _324  and  _325
REMARK  122  A    between atoms: _324  and  _327
REMARK  123  A    between atoms: _327  and  _328
REMARK  124  A    between atoms: _331  and  _333
REMARK  125  A    between atoms: _333  and  _334
REMARK  126  A    between atoms: _333  and  _336
REMARK  127  A    between atoms: _336  and  _337
REMARK  128  A    between atoms: _337  and  _338
REMARK  129  A    between atoms: _338  and  _339
REMARK  130  A    between atoms: _339  and  _340
REMARK  131  A    between atoms: _344  and  _346
REMARK  132  A    between atoms: _346  and  _347
REMARK  133  A    between atoms: _346  and  _349
REMARK  134  A    between atoms: _349  and  _350
REMARK  135  A    between atoms: _355  and  _356
REMARK  136  A    between atoms: _358  and  _360
REMARK  137  A    between atoms: _360  and  _361
REMARK  138  A    between atoms: _360  and  _363
REMARK  139  A    between atoms: _363  and  _364
REMARK  140  A    between atoms: _364  and  _365
REMARK  141  A    between atoms: _365  and  _366
REMARK                            x       y       z     vdW  Elec       q    Type
REMARK                         _______ _______ _______ _____ _____    ______ ____
ROOT
ATOM      1  CG  TYR A   1       7.133  18.770  51.497  0.00  0.00    -0.020 A 
ATOM      2  CD2 TYR A   1       7.075  18.206  52.774  0.00  0.00    -0.001 A 
ATOM      3  CE2 TYR A   1       7.113  16.838  52.954  0.00  0.00    +0.036 A 
ATOM      4  CZ  TYR A   1       7.209  16.012  51.846  0.00  0.00    +0.134 A 
ATOM      5  CE1 TYR A   1       7.262  16.543  50.565  0.00  0.00    +0.036 A 
ATOM      6  CD1 TYR A   1       7.225  17.912  50.397  0.00  0.00    -0.001 A 
ENDROOT
BRANCH   4   7
ATOM      7  OH  TYR A   1       7.284  14.654  52.035  0.00  0.00    -0.506 OA
ATOM      8  HH  TYR A   1       7.231  14.453  53.003  0.00  0.00    +0.292 HD
ENDBRANCH   4   7
BRANCH   1   9
ATOM      9  CB  TYR A   1       7.099  20.273  51.315  0.00  0.00    +0.051 C 
BRANCH   9  10
ATOM     10  CA  TYR A   1       7.601  20.739  49.948  0.00  0.00    +0.137 C 
BRANCH  10  11
ATOM     11  N   TYR A   1       9.020  20.443  49.823  0.00  0.00    -0.239 NA
ATOM     12  H   TYR A   1       9.487  19.906  50.581  0.00  0.00    +0.142 HD
ENDBRANCH  10  11
BRANCH  10  13
ATOM     13  C   TYR A   1       7.221  22.203  49.741  0.00  0.00    +0.224 C 
ATOM     14  O   TYR A   1       6.181  22.494  49.145  0.00  0.00    -0.287 OA
ENDBRANCH  10  13
ENDBRANCH   9  10
ENDBRANCH   1   9
TORSDOF 5
REMARK  Name = ../refined-set-2016/1gwv/1gwv_pocket.pdb
REMARK  141 active torsions:
REMARK  status: ('A' for Active; 'I' for Inactive)
REMARK    1  A    between atoms: _1  and  _3
REMARK    2  A    between atoms: _3  and  _4
REMARK    3  A    between atoms: _3  and  _6
REMARK    4  A    between atoms: _6  and  _7
REMARK    5  A    between atoms: _17  and  _19
REMARK    6  A    between atoms: _19  and  _20
REMARK    7  A    between atoms: _19  and  _22
REMARK    8  A    between atoms: _22  and  _23
REMARK    9  A    between atoms: _23  and  _24
REMARK   10  A    between atoms: _24  and  _25
REMARK   11  A    between atoms: _34  and  _36
REMARK   12  A    between atoms: _36  and  _37
REMARK   13  A    between atoms: _36  and  _39
REMARK   14  A    between atoms: _39  and  _40
REMARK   15  A    between atoms: _40  and  _42
REMARK   16  A    between atoms: _42  and  MN_375
REMARK   17  A    between atoms: _43  and  _45
REMARK   18  A    between atoms: _45  and  _46
REMARK   19  A    between atoms: _45  and  _48
REMARK   20  A    between atoms: _48  and  _49
REMARK   21  A    between atoms: _49  and  _50
REMARK   22  A    between atoms: _50  and  MN_375
REMARK   23  A    between atoms: _52  and  _54
REMARK   24  A    between atoms: _54  and  _55
REMARK   25  A    between atoms: _54  and  _57
REMARK   26  A    between atoms: _57  and  _58
REMARK   27  A    between atoms: _58  and  _59
REMARK   28  A    between atoms: _64  and  _66
REMARK   29  A    between atoms: _66  and  _67
REMARK   30  A    between atoms: _70  and  _72
REMARK   31  A    between atoms: _72  and  _73
REMARK   32  A    between atoms: _72  and  _75
REMARK   33  A    between atoms: _75  and  _76
REMARK   34  A    between atoms: _86  and  _88
REMARK   35  A    between atoms: _88  and  _89
REMARK   36  A    between atoms: _88  and  _91
REMARK   37  A    between atoms: _91  and  _92
REMARK   38  A    between atoms: _102  and  _104
REMARK   39  A    between atoms: _104  and  _105
REMARK   40  A    between atoms: _104  and  _107
REMARK   41  A    between atoms: _107  and  _108
REMARK   42  A    between atoms: _111  and  _113
REMARK   43  A    between atoms: _113  and  _114
REMARK   44  A    between atoms: _113  and  _116
REMARK   45  A    between atoms: _116  and  _117
REMARK   46  A    between atoms: _123  and  _125
REMARK   47  A    between atoms: _125  and  _126
REMARK   48  A    between atoms: _125  and  _128
REMARK   49  A    between atoms: _128  and  _129
REMARK   50  A    between atoms: _132  and  _134
REMARK   51  A    between atoms: _134  and  _135
REMARK   52  A    between atoms: _134  and  _137
REMARK   53  A    between atoms: _137  and  _138
REMARK   54  A    between atoms: _143  and  _144
REMARK   55  A    between atoms: _146  and  _148
REMARK   56  A    between atoms: _148  and  _149
REMARK   57  A    between atoms: _148  and  _151
REMARK   58  A    between atoms: _151  and  _152
REMARK   59  A    between atoms: _157  and  _158
REMARK   60  A    between atoms: _160  and  _162
REMARK   61  A    between atoms: _162  and  _163
REMARK   62  A    between atoms: _162  and  _165
REMARK   63  A    between atoms: _165  and  _166
REMARK   64  A    between atoms: _171  and  _172
REMARK   65  A    between atoms: _174  and  _176
REMARK   66  A    between atoms: _176  and  _177
REMARK   67  A    between atoms: _176  and  _179
REMARK   68  A    between atoms: _179  and  _180
REMARK   69  A    between atoms: _185  and  _187
REMARK   70  A    between atoms: _187  and  _188
REMARK   71  A    between atoms: _191  and  _193
REMARK   72  A    between atoms: _193  and  _194
REMARK   73  A    between atoms: _197  and  _199
REMARK   74  A    between atoms: _199  and  _200
REMARK   75  A    between atoms: _199  and  _202
REMARK   76  A    between atoms: _202  and  _203
REMARK   77  A    between atoms: _203  and  _204
REMARK   78  A    between atoms: _209  and  _211
REMARK   79  A    between atoms: _211  and  _212
REMARK   80  A    between atoms: _211  and  _214
REMARK   81  A    between atoms: _214  and  _215
REMARK   82  A    between atoms: _225  and  _227
REMARK   83  A    between atoms: _227  and  _228
REMARK   84  A    between atoms: _227  and  _230
REMARK   85  A    between atoms: _230  and  _231
REMARK   86  A    between atoms: _236  and  _238
REMARK   87  A    between atoms: _238  and  _239
REMARK   88  A    between atoms: _238  and  _241
REMARK   89  A    between atoms: _241  and  _242
REMARK   90  A    between atoms: _242  and  _243
REMARK   91  A    between atoms: _246  and  _248
REMARK   92  A    between atoms: _248  and  _249
REMARK   93  A    between atoms: _248  and  _251
REMARK   94  A    between atoms: _251  and  _252
REMARK   95  A    between atoms: _254  and  _256
REMARK   96  A    between atoms: _256  and  _257
REMARK   97  A    between atoms: _256  and  _259
REMARK   98  A    between atoms: _259  and  _260
REMARK   99  A    between atoms: _265  and  _267
REMARK  100  A    between atoms: _267  and  _268
REMARK  101  A    between atoms: _267  and  _270
REMARK  102  A    between atoms: _270  and  _271
REMARK  103  A    between atoms: _274  and  _276
REMARK  104  A    between atoms: _276  and  _277
REMARK  105  A    between atoms: _276  and  _279
REMARK  106  A    between atoms: _279  and  _280
REMARK  107  A    between atoms: _285  and  _287
REMARK  108  A    between atoms: _287  and  _288
REMARK  109  A    between atoms: _287  and  _290
REMARK  110  A    between atoms: _290  and  _291
REMARK  111  A    between atoms: _294  and  _296
REMARK  112  A    between atoms: _296  and  _297
REMARK  113  A    between atoms: _296  and  _299
REMARK  114  A    between atoms: _299  and  _300
REMARK  115  A    between atoms: _310  and  _312
REMARK  116  A    between atoms: _312  and  _313
REMARK  117  A    between atoms: _312  and  _315
REMARK  118  A    between atoms: _315  and  _316
REMARK  119  A    between atoms: _316  and  _317
REMARK  120  A    between atoms: _322  and  _324
REMARK  121  A    between atoms: _324  and  _325
REMARK  122  A    between atoms: _324  and  _327
REMARK  123  A    between atoms: _327  and  _328
REMARK  124  A    between atoms: _331  and  _333
REMARK  125  A    between atoms: _333  and  _334
REMARK  126  A    between atoms: _333  and  _336
REMARK  127  A    between atoms: _336  and  _337
REMARK  128  A    between atoms: _337  and  _338
REMARK  129  A    between atoms: _338  and  _339
REMARK  130  A    between atoms: _339  and  _340
REMARK  131  A    between atoms: _344  and  _346
REMARK  132  A    between atoms: _346  and  _347
REMARK  133  A    between atoms: _346  and  _349
REMARK  134  A    between atoms: _349  and  _350
REMARK  135  A    between atoms: _355  and  _356
REMARK  136  A    between atoms: _358  and  _360
REMARK  137  A    between atoms: _360  and  _361
REMARK  138  A    between atoms: _360  and  _363
REMARK  139  A    between atoms: _363  and  _364
REMARK  140  A    between atoms: _364  and  _365
REMARK  141  A    between atoms: _365  and  _366
REMARK                            x       y       z     vdW  Elec       q    Type
REMARK                         _______ _______ _______ _____ _____    ______ ____
ROOT
ATOM      1  NE  ARG A   1       3.989  17.340  49.348  0.00  0.00    -0.265 N 
ATOM      2  CZ  ARG A   1       4.064  16.520  50.389  0.00  0.00    +0.342 C 
ATOM      3  NH2 ARG A   1       3.816  16.975  51.610  0.00  0.00    -0.292 N 
ATOM      4 HH21 ARG A   1       3.875  16.333  52.426  0.00  0.00    +0.255 HD
ATOM      5 HH22 ARG A   1       3.563  17.974  51.751  0.00  0.00    +0.255 HD
ATOM      6  NH1 ARG A   1       4.401  15.251  50.217  0.00  0.00    -0.292 N 
ATOM      7 HH11 ARG A   1       4.458  14.613  51.036  0.00  0.00    +0.255 HD
ATOM      8 HH12 ARG A   1       4.608  14.893  49.263  0.00  0.00    +0.255 HD
ATOM      9  HE  ARG A   1       4.186  16.955  48.402  0.00  0.00    +0.259 HD
ENDROOT
BRANCH   1  10
ATOM     10  CD  ARG A   1       3.645  18.752  49.461  0.00  0.00    +0.174 C 
BRANCH  10  11
ATOM     11  CG  ARG A   1       3.784  19.511  48.157  0.00  0.00    +0.045 C 
BRANCH  11  12
ATOM     12  CB  ARG A   1       3.345  20.961  48.339  0.00  0.00    +0.029 C 
BRANCH  12  13
ATOM     13  CA  ARG A   1       3.350  21.775  47.047  0.00  0.00    +0.133 C 
BRANCH  13  14
ATOM     14  N   ARG A   1       4.713  21.947  46.561  0.00  0.00    -0.239 NA
ATOM     15  H   ARG A   1       5.409  22.455  47.143  0.00  0.00    +0.142 HD
ENDBRANCH  13  14
BRANCH  13  16
ATOM     16  C   ARG A   1       2.714  23.138  47.282  0.00  0.00    +0.224 C 
ATOM     17  O   ARG A   1       3.410  24.093  47.620  0.00  0.00    -0.287 OA
ENDBRANCH  13  16
ENDBRANCH  12  13
ENDBRANCH  11  12
ENDBRANCH  10  11
ENDBRANCH   1  10
TORSDOF 6
REMARK  Name = ../refined-set-2016/1gwv/1gwv_pocket.pdb
REMARK  141 active torsions:
REMARK  status: ('A' for Active; 'I' for Inactive)
REMARK    1  A    between atoms: _1  and  _3
REMARK    2  A    between atoms: _3  and  _4
REMARK    3  A    between atoms: _3  and  _6
REMARK    4  A    between atoms: _6  and  _7
REMARK    5  A    between atoms: _17  and  _19
REMARK    6  A    between atoms: _19  and  _20
REMARK    7  A    between atoms: _19  and  _22
REMARK    8  A    between atoms: _22  and  _23
REMARK    9  A    between atoms: _23  and  _24
REMARK   10  A    between atoms: _24  and  _25
REMARK   11  A    between atoms: _34  and  _36
REMARK   12  A    between atoms: _36  and  _37
REMARK   13  A    between atoms: _36  and  _39
REMARK   14  A    between atoms: _39  and  _40
REMARK   15  A    between atoms: _40  and  _42
REMARK   16  A    between atoms: _42  and  MN_375
REMARK   17  A    between atoms: _43  and  _45
REMARK   18  A    between atoms: _45  and  _46
REMARK   19  A    between atoms: _45  and  _48
REMARK   20  A    between atoms: _48  and  _49
REMARK   21  A    between atoms: _49  and  _50
REMARK   22  A    between atoms: _50  and  MN_375
REMARK   23  A    between atoms: _52  and  _54
REMARK   24  A    between atoms: _54  and  _55
REMARK   25  A    between atoms: _54  and  _57
REMARK   26  A    between atoms: _57  and  _58
REMARK   27  A    between atoms: _58  and  _59
REMARK   28  A    between atoms: _64  and  _66
REMARK   29  A    between atoms: _66  and  _67
REMARK   30  A    between atoms: _70  and  _72
REMARK   31  A    between atoms: _72  and  _73
REMARK   32  A    between atoms: _72  and  _75
REMARK   33  A    between atoms: _75  and  _76
REMARK   34  A    between atoms: _86  and  _88
REMARK   35  A    between atoms: _88  and  _89
REMARK   36  A    between atoms: _88  and  _91
REMARK   37  A    between atoms: _91  and  _92
REMARK   38  A    between atoms: _102  and  _104
REMARK   39  A    between atoms: _104  and  _105
REMARK   40  A    between atoms: _104  and  _107
REMARK   41  A    between atoms: _107  and  _108
REMARK   42  A    between atoms: _111  and  _113
REMARK   43  A    between atoms: _113  and  _114
REMARK   44  A    between atoms: _113  and  _116
REMARK   45  A    between atoms: _116  and  _117
REMARK   46  A    between atoms: _123  and  _125
REMARK   47  A    between atoms: _125  and  _126
REMARK   48  A    between atoms: _125  and  _128
REMARK   49  A    between atoms: _128  and  _129
REMARK   50  A    between atoms: _132  and  _134
REMARK   51  A    between atoms: _134  and  _135
REMARK   52  A    between atoms: _134  and  _137
REMARK   53  A    between atoms: _137  and  _138
REMARK   54  A    between atoms: _143  and  _144
REMARK   55  A    between atoms: _146  and  _148
REMARK   56  A    between atoms: _148  and  _149
REMARK   57  A    between atoms: _148  and  _151
REMARK   58  A    between atoms: _151  and  _152
REMARK   59  A    between atoms: _157  and  _158
REMARK   60  A    between atoms: _160  and  _162
REMARK   61  A    between atoms: _162  and  _163
REMARK   62  A    between atoms: _162  and  _165
REMARK   63  A    between atoms: _165  and  _166
REMARK   64  A    between atoms: _171  and  _172
REMARK   65  A    between atoms: _174  and  _176
REMARK   66  A    between atoms: _176  and  _177
REMARK   67  A    between atoms: _176  and  _179
REMARK   68  A    between atoms: _179  and  _180
REMARK   69  A    between atoms: _185  and  _187
REMARK   70  A    between atoms: _187  and  _188
REMARK   71  A    between atoms: _191  and  _193
REMARK   72  A    between atoms: _193  and  _194
REMARK   73  A    between atoms: _197  and  _199
REMARK   74  A    between atoms: _199  and  _200
REMARK   75  A    between atoms: _199  and  _202
REMARK   76  A    between atoms: _202  and  _203
REMARK   77  A    between atoms: _203  and  _204
REMARK   78  A    between atoms: _209  and  _211
REMARK   79  A    between atoms: _211  and  _212
REMARK   80  A    between atoms: _211  and  _214
REMARK   81  A    between atoms: _214  and  _215
REMARK   82  A    between atoms: _225  and  _227
REMARK   83  A    between atoms: _227  and  _228
REMARK   84  A    between atoms: _227  and  _230
REMARK   85  A    between atoms: _230  and  _231
REMARK   86  A    between atoms: _236  and  _238
REMARK   87  A    between atoms: _238  and  _239
REMARK   88  A    between atoms: _238  and  _241
REMARK   89  A    between atoms: _241  and  _242
REMARK   90  A    between atoms: _242  and  _243
REMARK   91  A    between atoms: _246  and  _248
REMARK   92  A    between atoms: _248  and  _249
REMARK   93  A    between atoms: _248  and  _251
REMARK   94  A    between atoms: _251  and  _252
REMARK   95  A    between atoms: _254  and  _256
REMARK   96  A    between atoms: _256  and  _257
REMARK   97  A    between atoms: _256  and  _259
REMARK   98  A    between atoms: _259  and  _260
REMARK   99  A    between atoms: _265  and  _267
REMARK  100  A    between atoms: _267  and  _268
REMARK  101  A    between atoms: _267  and  _270
REMARK  102  A    between atoms: _270  and  _271
REMARK  103  A    between atoms: _274  and  _276
REMARK  104  A    between atoms: _276  and  _277
REMARK  105  A    between atoms: _276  and  _279
REMARK  106  A    between atoms: _279  and  _280
REMARK  107  A    between atoms: _285  and  _287
REMARK  108  A    between atoms: _287  and  _288
REMARK  109  A    between atoms: _287  and  _290
REMARK  110  A    between atoms: _290  and  _291
REMARK  111  A    between atoms: _294  and  _296
REMARK  112  A    between atoms: _296  and  _297
REMARK  113  A    between atoms: _296  and  _299
REMARK  114  A    between atoms: _299  and  _300
REMARK  115  A    between atoms: _310  and  _312
REMARK  116  A    between atoms: _312  and  _313
REMARK  117  A    between atoms: _312  and  _315
REMARK  118  A    between atoms: _315  and  _316
REMARK  119  A    between atoms: _316  and  _317
REMARK  120  A    between atoms: _322  and  _324
REMARK  121  A    between atoms: _324  and  _325
REMARK  122  A    between atoms: _324  and  _327
REMARK  123  A    between atoms: _327  and  _328
REMARK  124  A    between atoms: _331  and  _333
REMARK  125  A    between atoms: _333  and  _334
REMARK  126  A    between atoms: _333  and  _336
REMARK  127  A    between atoms: _336  and  _337
REMARK  128  A    between atoms: _337  and  _338
REMARK  129  A    between atoms: _338  and  _339
REMARK  130  A    between atoms: _339  and  _340
REMARK  131  A    between atoms: _344  and  _346
REMARK  132  A    between atoms: _346  and  _347
REMARK  133  A    between atoms: _346  and  _349
REMARK  134  A    between atoms: _349  and  _350
REMARK  135  A    between atoms: _355  and  _356
REMARK  136  A    between atoms: _358  and  _360
REMARK  137  A    between atoms: _360  and  _361
REMARK  138  A    between atoms: _360  and  _363
REMARK  139  A    between atoms: _363  and  _364
REMARK  140  A    between atoms: _364  and  _365
REMARK  141  A    between atoms: _365  and  _366
REMARK                            x       y       z     vdW  Elec       q    Type
REMARK                         _______ _______ _______ _____ _____    ______ ____
ROOT
ATOM      1  O   HOH     1      11.617   7.733  47.751  0.00  0.00    +0.000 OA
ENDROOT
TORSDOF 0
REMARK  Name = ../refined-set-2016/1gwv/1gwv_pocket.pdb
REMARK  141 active torsions:
REMARK  status: ('A' for Active; 'I' for Inactive)
REMARK    1  A    between atoms: _1  and  _3
REMARK    2  A    between atoms: _3  and  _4
REMARK    3  A    between atoms: _3  and  _6
REMARK    4  A    between atoms: _6  and  _7
REMARK    5  A    between atoms: _17  and  _19
REMARK    6  A    between atoms: _19  and  _20
REMARK    7  A    between atoms: _19  and  _22
REMARK    8  A    between atoms: _22  and  _23
REMARK    9  A    between atoms: _23  and  _24
REMARK   10  A    between atoms: _24  and  _25
REMARK   11  A    between atoms: _34  and  _36
REMARK   12  A    between atoms: _36  and  _37
REMARK   13  A    between atoms: _36  and  _39
REMARK   14  A    between atoms: _39  and  _40
REMARK   15  A    between atoms: _40  and  _42
REMARK   16  A    between atoms: _42  and  MN_375
REMARK   17  A    between atoms: _43  and  _45
REMARK   18  A    between atoms: _45  and  _46
REMARK   19  A    between atoms: _45  and  _48
REMARK   20  A    between atoms: _48  and  _49
REMARK   21  A    between atoms: _49  and  _50
REMARK   22  A    between atoms: _50  and  MN_375
REMARK   23  A    between atoms: _52  and  _54
REMARK   24  A    between atoms: _54  and  _55
REMARK   25  A    between atoms: _54  and  _57
REMARK   26  A    between atoms: _57  and  _58
REMARK   27  A    between atoms: _58  and  _59
REMARK   28  A    between atoms: _64  and  _66
REMARK   29  A    between atoms: _66  and  _67
REMARK   30  A    between atoms: _70  and  _72
REMARK   31  A    between atoms: _72  and  _73
REMARK   32  A    between atoms: _72  and  _75
REMARK   33  A    between atoms: _75  and  _76
REMARK   34  A    between atoms: _86  and  _88
REMARK   35  A    between atoms: _88  and  _89
REMARK   36  A    between atoms: _88  and  _91
REMARK   37  A    between atoms: _91  and  _92
REMARK   38  A    between atoms: _102  and  _104
REMARK   39  A    between atoms: _104  and  _105
REMARK   40  A    between atoms: _104  and  _107
REMARK   41  A    between atoms: _107  and  _108
REMARK   42  A    between atoms: _111  and  _113
REMARK   43  A    between atoms: _113  and  _114
REMARK   44  A    between atoms: _113  and  _116
REMARK   45  A    between atoms: _116  and  _117
REMARK   46  A    between atoms: _123  and  _125
REMARK   47  A    between atoms: _125  and  _126
REMARK   48  A    between atoms: _125  and  _128
REMARK   49  A    between atoms: _128  and  _129
REMARK   50  A    between atoms: _132  and  _134
REMARK   51  A    between atoms: _134  and  _135
REMARK   52  A    between atoms: _134  and  _137
REMARK   53  A    between atoms: _137  and  _138
REMARK   54  A    between atoms: _143  and  _144
REMARK   55  A    between atoms: _146  and  _148
REMARK   56  A    between atoms: _148  and  _149
REMARK   57  A    between atoms: _148  and  _151
REMARK   58  A    between atoms: _151  and  _152
REMARK   59  A    between atoms: _157  and  _158
REMARK   60  A    between atoms: _160  and  _162
REMARK   61  A    between atoms: _162  and  _163
REMARK   62  A    between atoms: _162  and  _165
REMARK   63  A    between atoms: _165  and  _166
REMARK   64  A    between atoms: _171  and  _172
REMARK   65  A    between atoms: _174  and  _176
REMARK   66  A    between atoms: _176  and  _177
REMARK   67  A    between atoms: _176  and  _179
REMARK   68  A    between atoms: _179  and  _180
REMARK   69  A    between atoms: _185  and  _187
REMARK   70  A    between atoms: _187  and  _188
REMARK   71  A    between atoms: _191  and  _193
REMARK   72  A    between atoms: _193  and  _194
REMARK   73  A    between atoms: _197  and  _199
REMARK   74  A    between atoms: _199  and  _200
REMARK   75  A    between atoms: _199  and  _202
REMARK   76  A    between atoms: _202  and  _203
REMARK   77  A    between atoms: _203  and  _204
REMARK   78  A    between atoms: _209  and  _211
REMARK   79  A    between atoms: _211  and  _212
REMARK   80  A    between atoms: _211  and  _214
REMARK   81  A    between atoms: _214  and  _215
REMARK   82  A    between atoms: _225  and  _227
REMARK   83  A    between atoms: _227  and  _228
REMARK   84  A    between atoms: _227  and  _230
REMARK   85  A    between atoms: _230  and  _231
REMARK   86  A    between atoms: _236  and  _238
REMARK   87  A    between atoms: _238  and  _239
REMARK   88  A    between atoms: _238  and  _241
REMARK   89  A    between atoms: _241  and  _242
REMARK   90  A    between atoms: _242  and  _243
REMARK   91  A    between atoms: _246  and  _248
REMARK   92  A    between atoms: _248  and  _249
REMARK   93  A    between atoms: _248  and  _251
REMARK   94  A    between atoms: _251  and  _252
REMARK   95  A    between atoms: _254  and  _256
REMARK   96  A    between atoms: _256  and  _257
REMARK   97  A    between atoms: _256  and  _259
REMARK   98  A    between atoms: _259  and  _260
REMARK   99  A    between atoms: _265  and  _267
REMARK  100  A    between atoms: _267  and  _268
REMARK  101  A    between atoms: _267  and  _270
REMARK  102  A    between atoms: _270  and  _271
REMARK  103  A    between atoms: _274  and  _276
REMARK  104  A    between atoms: _276  and  _277
REMARK  105  A    between atoms: _276  and  _279
REMARK  106  A    between atoms: _279  and  _280
REMARK  107  A    between atoms: _285  and  _287
REMARK  108  A    between atoms: _287  and  _288
REMARK  109  A    between atoms: _287  and  _290
REMARK  110  A    between atoms: _290  and  _291
REMARK  111  A    between atoms: _294  and  _296
REMARK  112  A    between atoms: _296  and  _297
REMARK  113  A    between atoms: _296  and  _299
REMARK  114  A    between atoms: _299  and  _300
REMARK  115  A    between atoms: _310  and  _312
REMARK  116  A    between atoms: _312  and  _313
REMARK  117  A    between atoms: _312  and  _315
REMARK  118  A    between atoms: _315  and  _316
REMARK  119  A    between atoms: _316  and  _317
REMARK  120  A    between atoms: _322  and  _324
REMARK  121  A    between atoms: _324  and  _325
REMARK  122  A    between atoms: _324  and  _327
REMARK  123  A    between atoms: _327  and  _328
REMARK  124  A    between atoms: _331  and  _333
REMARK  125  A    between atoms: _333  and  _334
REMARK  126  A    between atoms: _333  and  _336
REMARK  127  A    between atoms: _336  and  _337
REMARK  128  A    between atoms: _337  and  _338
REMARK  129  A    between atoms: _338  and  _339
REMARK  130  A    between atoms: _339  and  _340
REMARK  131  A    between atoms: _344  and  _346
REMARK  132  A    between atoms: _346  and  _347
REMARK  133  A    between atoms: _346  and  _349
REMARK  134  A    between atoms: _349  and  _350
REMARK  135  A    between atoms: _355  and  _356
REMARK  136  A    between atoms: _358  and  _360
REMARK  137  A    between atoms: _360  and  _361
REMARK  138  A    between atoms: _360  and  _363
REMARK  139  A    between atoms: _363  and  _364
REMARK  140  A    between atoms: _364  and  _365
REMARK  141  A    between atoms: _365  and  _366
REMARK                            x       y       z     vdW  Elec       q    Type
REMARK                         _______ _______ _______ _____ _____    ______ ____
ROOT
ATOM      1  O   HOH     1      12.259   3.575  51.635  0.00  0.00    +0.000 OA
ENDROOT
TORSDOF 0
REMARK  Name = ../refined-set-2016/1gwv/1gwv_pocket.pdb
REMARK  141 active torsions:
REMARK  status: ('A' for Active; 'I' for Inactive)
REMARK    1  A    between atoms: _1  and  _3
REMARK    2  A    between atoms: _3  and  _4
REMARK    3  A    between atoms: _3  and  _6
REMARK    4  A    between atoms: _6  and  _7
REMARK    5  A    between atoms: _17  and  _19
REMARK    6  A    between atoms: _19  and  _20
REMARK    7  A    between atoms: _19  and  _22
REMARK    8  A    between atoms: _22  and  _23
REMARK    9  A    between atoms: _23  and  _24
REMARK   10  A    between atoms: _24  and  _25
REMARK   11  A    between atoms: _34  and  _36
REMARK   12  A    between atoms: _36  and  _37
REMARK   13  A    between atoms: _36  and  _39
REMARK   14  A    between atoms: _39  and  _40
REMARK   15  A    between atoms: _40  and  _42
REMARK   16  A    between atoms: _42  and  MN_375
REMARK   17  A    between atoms: _43  and  _45
REMARK   18  A    between atoms: _45  and  _46
REMARK   19  A    between atoms: _45  and  _48
REMARK   20  A    between atoms: _48  and  _49
REMARK   21  A    between atoms: _49  and  _50
REMARK   22  A    between atoms: _50  and  MN_375
REMARK   23  A    between atoms: _52  and  _54
REMARK   24  A    between atoms: _54  and  _55
REMARK   25  A    between atoms: _54  and  _57
REMARK   26  A    between atoms: _57  and  _58
REMARK   27  A    between atoms: _58  and  _59
REMARK   28  A    between atoms: _64  and  _66
REMARK   29  A    between atoms: _66  and  _67
REMARK   30  A    between atoms: _70  and  _72
REMARK   31  A    between atoms: _72  and  _73
REMARK   32  A    between atoms: _72  and  _75
REMARK   33  A    between atoms: _75  and  _76
REMARK   34  A    between atoms: _86  and  _88
REMARK   35  A    between atoms: _88  and  _89
REMARK   36  A    between atoms: _88  and  _91
REMARK   37  A    between atoms: _91  and  _92
REMARK   38  A    between atoms: _102  and  _104
REMARK   39  A    between atoms: _104  and  _105
REMARK   40  A    between atoms: _104  and  _107
REMARK   41  A    between atoms: _107  and  _108
REMARK   42  A    between atoms: _111  and  _113
REMARK   43  A    between atoms: _113  and  _114
REMARK   44  A    between atoms: _113  and  _116
REMARK   45  A    between atoms: _116  and  _117
REMARK   46  A    between atoms: _123  and  _125
REMARK   47  A    between atoms: _125  and  _126
REMARK   48  A    between atoms: _125  and  _128
REMARK   49  A    between atoms: _128  and  _129
REMARK   50  A    between atoms: _132  and  _134
REMARK   51  A    between atoms: _134  and  _135
REMARK   52  A    between atoms: _134  and  _137
REMARK   53  A    between atoms: _137  and  _138
REMARK   54  A    between atoms: _143  and  _144
REMARK   55  A    between atoms: _146  and  _148
REMARK   56  A    between atoms: _148  and  _149
REMARK   57  A    between atoms: _148  and  _151
REMARK   58  A    between atoms: _151  and  _152
REMARK   59  A    between atoms: _157  and  _158
REMARK   60  A    between atoms: _160  and  _162
REMARK   61  A    between atoms: _162  and  _163
REMARK   62  A    between atoms: _162  and  _165
REMARK   63  A    between atoms: _165  and  _166
REMARK   64  A    between atoms: _171  and  _172
REMARK   65  A    between atoms: _174  and  _176
REMARK   66  A    between atoms: _176  and  _177
REMARK   67  A    between atoms: _176  and  _179
REMARK   68  A    between atoms: _179  and  _180
REMARK   69  A    between atoms: _185  and  _187
REMARK   70  A    between atoms: _187  and  _188
REMARK   71  A    between atoms: _191  and  _193
REMARK   72  A    between atoms: _193  and  _194
REMARK   73  A    between atoms: _197  and  _199
REMARK   74  A    between atoms: _199  and  _200
REMARK   75  A    between atoms: _199  and  _202
REMARK   76  A    between atoms: _202  and  _203
REMARK   77  A    between atoms: _203  and  _204
REMARK   78  A    between atoms: _209  and  _211
REMARK   79  A    between atoms: _211  and  _212
REMARK   80  A    between atoms: _211  and  _214
REMARK   81  A    between atoms: _214  and  _215
REMARK   82  A    between atoms: _225  and  _227
REMARK   83  A    between atoms: _227  and  _228
REMARK   84  A    between atoms: _227  and  _230
REMARK   85  A    between atoms: _230  and  _231
REMARK   86  A    between atoms: _236  and  _238
REMARK   87  A    between atoms: _238  and  _239
REMARK   88  A    between atoms: _238  and  _241
REMARK   89  A    between atoms: _241  and  _242
REMARK   90  A    between atoms: _242  and  _243
REMARK   91  A    between atoms: _246  and  _248
REMARK   92  A    between atoms: _248  and  _249
REMARK   93  A    between atoms: _248  and  _251
REMARK   94  A    between atoms: _251  and  _252
REMARK   95  A    between atoms: _254  and  _256
REMARK   96  A    between atoms: _256  and  _257
REMARK   97  A    between atoms: _256  and  _259
REMARK   98  A    between atoms: _259  and  _260
REMARK   99  A    between atoms: _265  and  _267
REMARK  100  A    between atoms: _267  and  _268
REMARK  101  A    between atoms: _267  and  _270
REMARK  102  A    between atoms: _270  and  _271
REMARK  103  A    between atoms: _274  and  _276
REMARK  104  A    between atoms: _276  and  _277
REMARK  105  A    between atoms: _276  and  _279
REMARK  106  A    between atoms: _279  and  _280
REMARK  107  A    between atoms: _285  and  _287
REMARK  108  A    between atoms: _287  and  _288
REMARK  109  A    between atoms: _287  and  _290
REMARK  110  A    between atoms: _290  and  _291
REMARK  111  A    between atoms: _294  and  _296
REMARK  112  A    between atoms: _296  and  _297
REMARK  113  A    between atoms: _296  and  _299
REMARK  114  A    between atoms: _299  and  _300
REMARK  115  A    between atoms: _310  and  _312
REMARK  116  A    between atoms: _312  and  _313
REMARK  117  A    between atoms: _312  and  _315
REMARK  118  A    between atoms: _315  and  _316
REMARK  119  A    between atoms: _316  and  _317
REMARK  120  A    between atoms: _322  and  _324
REMARK  121  A    between atoms: _324  and  _325
REMARK  122  A    between atoms: _324  and  _327
REMARK  123  A    between atoms: _327  and  _328
REMARK  124  A    between atoms: _331  and  _333
REMARK  125  A    between atoms: _333  and  _334
REMARK  126  A    between atoms: _333  and  _336
REMARK  127  A    between atoms: _336  and  _337
REMARK  128  A    between atoms: _337  and  _338
REMARK  129  A    between atoms: _338  and  _339
REMARK  130  A    between atoms: _339  and  _340
REMARK  131  A    between atoms: _344  and  _346
REMARK  132  A    between atoms: _346  and  _347
REMARK  133  A    between atoms: _346  and  _349
REMARK  134  A    between atoms: _349  and  _350
REMARK  135  A    between atoms: _355  and  _356
REMARK  136  A    between atoms: _358  and  _360
REMARK  137  A    between atoms: _360  and  _361
REMARK  138  A    between atoms: _360  and  _363
REMARK  139  A    between atoms: _363  and  _364
REMARK  140  A    between atoms: _364  and  _365
REMARK  141  A    between atoms: _365  and  _366
REMARK                            x       y       z     vdW  Elec       q    Type
REMARK                         _______ _______ _______ _____ _____    ______ ____
ROOT
ATOM      1  O   HOH     1      16.774   3.252  59.591  0.00  0.00    +0.000 OA
ENDROOT
TORSDOF 0
REMARK  Name = ../refined-set-2016/1gwv/1gwv_pocket.pdb
REMARK  141 active torsions:
REMARK  status: ('A' for Active; 'I' for Inactive)
REMARK    1  A    between atoms: _1  and  _3
REMARK    2  A    between atoms: _3  and  _4
REMARK    3  A    between atoms: _3  and  _6
REMARK    4  A    between atoms: _6  and  _7
REMARK    5  A    between atoms: _17  and  _19
REMARK    6  A    between atoms: _19  and  _20
REMARK    7  A    between atoms: _19  and  _22
REMARK    8  A    between atoms: _22  and  _23
REMARK    9  A    between atoms: _23  and  _24
REMARK   10  A    between atoms: _24  and  _25
REMARK   11  A    between atoms: _34  and  _36
REMARK   12  A    between atoms: _36  and  _37
REMARK   13  A    between atoms: _36  and  _39
REMARK   14  A    between atoms: _39  and  _40
REMARK   15  A    between atoms: _40  and  _42
REMARK   16  A    between atoms: _42  and  MN_375
REMARK   17  A    between atoms: _43  and  _45
REMARK   18  A    between atoms: _45  and  _46
REMARK   19  A    between atoms: _45  and  _48
REMARK   20  A    between atoms: _48  and  _49
REMARK   21  A    between atoms: _49  and  _50
REMARK   22  A    between atoms: _50  and  MN_375
REMARK   23  A    between atoms: _52  and  _54
REMARK   24  A    between atoms: _54  and  _55
REMARK   25  A    between atoms: _54  and  _57
REMARK   26  A    between atoms: _57  and  _58
REMARK   27  A    between atoms: _58  and  _59
REMARK   28  A    between atoms: _64  and  _66
REMARK   29  A    between atoms: _66  and  _67
REMARK   30  A    between atoms: _70  and  _72
REMARK   31  A    between atoms: _72  and  _73
REMARK   32  A    between atoms: _72  and  _75
REMARK   33  A    between atoms: _75  and  _76
REMARK   34  A    between atoms: _86  and  _88
REMARK   35  A    between atoms: _88  and  _89
REMARK   36  A    between atoms: _88  and  _91
REMARK   37  A    between atoms: _91  and  _92
REMARK   38  A    between atoms: _102  and  _104
REMARK   39  A    between atoms: _104  and  _105
REMARK   40  A    between atoms: _104  and  _107
REMARK   41  A    between atoms: _107  and  _108
REMARK   42  A    between atoms: _111  and  _113
REMARK   43  A    between atoms: _113  and  _114
REMARK   44  A    between atoms: _113  and  _116
REMARK   45  A    between atoms: _116  and  _117
REMARK   46  A    between atoms: _123  and  _125
REMARK   47  A    between atoms: _125  and  _126
REMARK   48  A    between atoms: _125  and  _128
REMARK   49  A    between atoms: _128  and  _129
REMARK   50  A    between atoms: _132  and  _134
REMARK   51  A    between atoms: _134  and  _135
REMARK   52  A    between atoms: _134  and  _137
REMARK   53  A    between atoms: _137  and  _138
REMARK   54  A    between atoms: _143  and  _144
REMARK   55  A    between atoms: _146  and  _148
REMARK   56  A    between atoms: _148  and  _149
REMARK   57  A    between atoms: _148  and  _151
REMARK   58  A    between atoms: _151  and  _152
REMARK   59  A    between atoms: _157  and  _158
REMARK   60  A    between atoms: _160  and  _162
REMARK   61  A    between atoms: _162  and  _163
REMARK   62  A    between atoms: _162  and  _165
REMARK   63  A    between atoms: _165  and  _166
REMARK   64  A    between atoms: _171  and  _172
REMARK   65  A    between atoms: _174  and  _176
REMARK   66  A    between atoms: _176  and  _177
REMARK   67  A    between atoms: _176  and  _179
REMARK   68  A    between atoms: _179  and  _180
REMARK   69  A    between atoms: _185  and  _187
REMARK   70  A    between atoms: _187  and  _188
REMARK   71  A    between atoms: _191  and  _193
REMARK   72  A    between atoms: _193  and  _194
REMARK   73  A    between atoms: _197  and  _199
REMARK   74  A    between atoms: _199  and  _200
REMARK   75  A    between atoms: _199  and  _202
REMARK   76  A    between atoms: _202  and  _203
REMARK   77  A    between atoms: _203  and  _204
REMARK   78  A    between atoms: _209  and  _211
REMARK   79  A    between atoms: _211  and  _212
REMARK   80  A    between atoms: _211  and  _214
REMARK   81  A    between atoms: _214  and  _215
REMARK   82  A    between atoms: _225  and  _227
REMARK   83  A    between atoms: _227  and  _228
REMARK   84  A    between atoms: _227  and  _230
REMARK   85  A    between atoms: _230  and  _231
REMARK   86  A    between atoms: _236  and  _238
REMARK   87  A    between atoms: _238  and  _239
REMARK   88  A    between atoms: _238  and  _241
REMARK   89  A    between atoms: _241  and  _242
REMARK   90  A    between atoms: _242  and  _243
REMARK   91  A    between atoms: _246  and  _248
REMARK   92  A    between atoms: _248  and  _249
REMARK   93  A    between atoms: _248  and  _251
REMARK   94  A    between atoms: _251  and  _252
REMARK   95  A    between atoms: _254  and  _256
REMARK   96  A    between atoms: _256  and  _257
REMARK   97  A    between atoms: _256  and  _259
REMARK   98  A    between atoms: _259  and  _260
REMARK   99  A    between atoms: _265  and  _267
REMARK  100  A    between atoms: _267  and  _268
REMARK  101  A    between atoms: _267  and  _270
REMARK  102  A    between atoms: _270  and  _271
REMARK  103  A    between atoms: _274  and  _276
REMARK  104  A    between atoms: _276  and  _277
REMARK  105  A    between atoms: _276  and  _279
REMARK  106  A    between atoms: _279  and  _280
REMARK  107  A    between atoms: _285  and  _287
REMARK  108  A    between atoms: _287  and  _288
REMARK  109  A    between atoms: _287  and  _290
REMARK  110  A    between atoms: _290  and  _291
REMARK  111  A    between atoms: _294  and  _296
REMARK  112  A    between atoms: _296  and  _297
REMARK  113  A    between atoms: _296  and  _299
REMARK  114  A    between atoms: _299  and  _300
REMARK  115  A    between atoms: _310  and  _312
REMARK  116  A    between atoms: _312  and  _313
REMARK  117  A    between atoms: _312  and  _315
REMARK  118  A    between atoms: _315  and  _316
REMARK  119  A    between atoms: _316  and  _317
REMARK  120  A    between atoms: _322  and  _324
REMARK  121  A    between atoms: _324  and  _325
REMARK  122  A    between atoms: _324  and  _327
REMARK  123  A    between atoms: _327  and  _328
REMARK  124  A    between atoms: _331  and  _333
REMARK  125  A    between atoms: _333  and  _334
REMARK  126  A    between atoms: _333  and  _336
REMARK  127  A    between atoms: _336  and  _337
REMARK  128  A    between atoms: _337  and  _338
REMARK  129  A    between atoms: _338  and  _339
REMARK  130  A    between atoms: _339  and  _340
REMARK  131  A    between atoms: _344  and  _346
REMARK  132  A    between atoms: _346  and  _347
REMARK  133  A    between atoms: _346  and  _349
REMARK  134  A    between atoms: _349  and  _350
REMARK  135  A    between atoms: _355  and  _356
REMARK  136  A    between atoms: _358  and  _360
REMARK  137  A    between atoms: _360  and  _361
REMARK  138  A    between atoms: _360  and  _363
REMARK  139  A    between atoms: _363  and  _364
REMARK  140  A    between atoms: _364  and  _365
REMARK  141  A    between atoms: _365  and  _366
REMARK                            x       y       z     vdW  Elec       q    Type
REMARK                         _______ _______ _______ _____ _____    ______ ____
ROOT
ATOM      1  O   HOH     1       0.887   4.507  57.251  0.00  0.00    +0.000 OA
ENDROOT
TORSDOF 0
REMARK  Name = ../refined-set-2016/1gwv/1gwv_pocket.pdb
REMARK  141 active torsions:
REMARK  status: ('A' for Active; 'I' for Inactive)
REMARK    1  A    between atoms: _1  and  _3
REMARK    2  A    between atoms: _3  and  _4
REMARK    3  A    between atoms: _3  and  _6
REMARK    4  A    between atoms: _6  and  _7
REMARK    5  A    between atoms: _17  and  _19
REMARK    6  A    between atoms: _19  and  _20
REMARK    7  A    between atoms: _19  and  _22
REMARK    8  A    between atoms: _22  and  _23
REMARK    9  A    between atoms: _23  and  _24
REMARK   10  A    between atoms: _24  and  _25
REMARK   11  A    between atoms: _34  and  _36
REMARK   12  A    between atoms: _36  and  _37
REMARK   13  A    between atoms: _36  and  _39
REMARK   14  A    between atoms: _39  and  _40
REMARK   15  A    between atoms: _40  and  _42
REMARK   16  A    between atoms: _42  and  MN_375
REMARK   17  A    between atoms: _43  and  _45
REMARK   18  A    between atoms: _45  and  _46
REMARK   19  A    between atoms: _45  and  _48
REMARK   20  A    between atoms: _48  and  _49
REMARK   21  A    between atoms: _49  and  _50
REMARK   22  A    between atoms: _50  and  MN_375
REMARK   23  A    between atoms: _52  and  _54
REMARK   24  A    between atoms: _54  and  _55
REMARK   25  A    between atoms: _54  and  _57
REMARK   26  A    between atoms: _57  and  _58
REMARK   27  A    between atoms: _58  and  _59
REMARK   28  A    between atoms: _64  and  _66
REMARK   29  A    between atoms: _66  and  _67
REMARK   30  A    between atoms: _70  and  _72
REMARK   31  A    between atoms: _72  and  _73
REMARK   32  A    between atoms: _72  and  _75
REMARK   33  A    between atoms: _75  and  _76
REMARK   34  A    between atoms: _86  and  _88
REMARK   35  A    between atoms: _88  and  _89
REMARK   36  A    between atoms: _88  and  _91
REMARK   37  A    between atoms: _91  and  _92
REMARK   38  A    between atoms: _102  and  _104
REMARK   39  A    between atoms: _104  and  _105
REMARK   40  A    between atoms: _104  and  _107
REMARK   41  A    between atoms: _107  and  _108
REMARK   42  A    between atoms: _111  and  _113
REMARK   43  A    between atoms: _113  and  _114
REMARK   44  A    between atoms: _113  and  _116
REMARK   45  A    between atoms: _116  and  _117
REMARK   46  A    between atoms: _123  and  _125
REMARK   47  A    between atoms: _125  and  _126
REMARK   48  A    between atoms: _125  and  _128
REMARK   49  A    between atoms: _128  and  _129
REMARK   50  A    between atoms: _132  and  _134
REMARK   51  A    between atoms: _134  and  _135
REMARK   52  A    between atoms: _134  and  _137
REMARK   53  A    between atoms: _137  and  _138
REMARK   54  A    between atoms: _143  and  _144
REMARK   55  A    between atoms: _146  and  _148
REMARK   56  A    between atoms: _148  and  _149
REMARK   57  A    between atoms: _148  and  _151
REMARK   58  A    between atoms: _151  and  _152
REMARK   59  A    between atoms: _157  and  _158
REMARK   60  A    between atoms: _160  and  _162
REMARK   61  A    between atoms: _162  and  _163
REMARK   62  A    between atoms: _162  and  _165
REMARK   63  A    between atoms: _165  and  _166
REMARK   64  A    between atoms: _171  and  _172
REMARK   65  A    between atoms: _174  and  _176
REMARK   66  A    between atoms: _176  and  _177
REMARK   67  A    between atoms: _176  and  _179
REMARK   68  A    between atoms: _179  and  _180
REMARK   69  A    between atoms: _185  and  _187
REMARK   70  A    between atoms: _187  and  _188
REMARK   71  A    between atoms: _191  and  _193
REMARK   72  A    between atoms: _193  and  _194
REMARK   73  A    between atoms: _197  and  _199
REMARK   74  A    between atoms: _199  and  _200
REMARK   75  A    between atoms: _199  and  _202
REMARK   76  A    between atoms: _202  and  _203
REMARK   77  A    between atoms: _203  and  _204
REMARK   78  A    between atoms: _209  and  _211
REMARK   79  A    between atoms: _211  and  _212
REMARK   80  A    between atoms: _211  and  _214
REMARK   81  A    between atoms: _214  and  _215
REMARK   82  A    between atoms: _225  and  _227
REMARK   83  A    between atoms: _227  and  _228
REMARK   84  A    between atoms: _227  and  _230
REMARK   85  A    between atoms: _230  and  _231
REMARK   86  A    between atoms: _236  and  _238
REMARK   87  A    between atoms: _238  and  _239
REMARK   88  A    between atoms: _238  and  _241
REMARK   89  A    between atoms: _241  and  _242
REMARK   90  A    between atoms: _242  and  _243
REMARK   91  A    between atoms: _246  and  _248
REMARK   92  A    between atoms: _248  and  _249
REMARK   93  A    between atoms: _248  and  _251
REMARK   94  A    between atoms: _251  and  _252
REMARK   95  A    between atoms: _254  and  _256
REMARK   96  A    between atoms: _256  and  _257
REMARK   97  A    between atoms: _256  and  _259
REMARK   98  A    between atoms: _259  and  _260
REMARK   99  A    between atoms: _265  and  _267
REMARK  100  A    between atoms: _267  and  _268
REMARK  101  A    between atoms: _267  and  _270
REMARK  102  A    between atoms: _270  and  _271
REMARK  103  A    between atoms: _274  and  _276
REMARK  104  A    between atoms: _276  and  _277
REMARK  105  A    between atoms: _276  and  _279
REMARK  106  A    between atoms: _279  and  _280
REMARK  107  A    between atoms: _285  and  _287
REMARK  108  A    between atoms: _287  and  _288
REMARK  109  A    between atoms: _287  and  _290
REMARK  110  A    between atoms: _290  and  _291
REMARK  111  A    between atoms: _294  and  _296
REMARK  112  A    between atoms: _296  and  _297
REMARK  113  A    between atoms: _296  and  _299
REMARK  114  A    between atoms: _299  and  _300
REMARK  115  A    between atoms: _310  and  _312
REMARK  116  A    between atoms: _312  and  _313
REMARK  117  A    between atoms: _312  and  _315
REMARK  118  A    between atoms: _315  and  _316
REMARK  119  A    between atoms: _316  and  _317
REMARK  120  A    between atoms: _322  and  _324
REMARK  121  A    between atoms: _324  and  _325
REMARK  122  A    between atoms: _324  and  _327
REMARK  123  A    between atoms: _327  and  _328
REMARK  124  A    between atoms: _331  and  _333
REMARK  125  A    between atoms: _333  and  _334
REMARK  126  A    between atoms: _333  and  _336
REMARK  127  A    between atoms: _336  and  _337
REMARK  128  A    between atoms: _337  and  _338
REMARK  129  A    between atoms: _338  and  _339
REMARK  130  A    between atoms: _339  and  _340
REMARK  131  A    between atoms: _344  and  _346
REMARK  132  A    between atoms: _346  and  _347
REMARK  133  A    between atoms: _346  and  _349
REMARK  134  A    between atoms: _349  and  _350
REMARK  135  A    between atoms: _355  and  _356
REMARK  136  A    between atoms: _358  and  _360
REMARK  137  A    between atoms: _360  and  _361
REMARK  138  A    between atoms: _360  and  _363
REMARK  139  A    between atoms: _363  and  _364
REMARK  140  A    between atoms: _364  and  _365
REMARK  141  A    between atoms: _365  and  _366
REMARK                            x       y       z     vdW  Elec       q    Type
REMARK                         _______ _______ _______ _____ _____    ______ ____
ROOT
ATOM      1  O   HOH     1       0.634   6.374  63.631  0.00  0.00    +0.000 OA
ENDROOT
TORSDOF 0
REMARK  Name = ../refined-set-2016/1gwv/1gwv_pocket.pdb
REMARK  141 active torsions:
REMARK  status: ('A' for Active; 'I' for Inactive)
REMARK    1  A    between atoms: _1  and  _3
REMARK    2  A    between atoms: _3  and  _4
REMARK    3  A    between atoms: _3  and  _6
REMARK    4  A    between atoms: _6  and  _7
REMARK    5  A    between atoms: _17  and  _19
REMARK    6  A    between atoms: _19  and  _20
REMARK    7  A    between atoms: _19  and  _22
REMARK    8  A    between atoms: _22  and  _23
REMARK    9  A    between atoms: _23  and  _24
REMARK   10  A    between atoms: _24  and  _25
REMARK   11  A    between atoms: _34  and  _36
REMARK   12  A    between atoms: _36  and  _37
REMARK   13  A    between atoms: _36  and  _39
REMARK   14  A    between atoms: _39  and  _40
REMARK   15  A    between atoms: _40  and  _42
REMARK   16  A    between atoms: _42  and  MN_375
REMARK   17  A    between atoms: _43  and  _45
REMARK   18  A    between atoms: _45  and  _46
REMARK   19  A    between atoms: _45  and  _48
REMARK   20  A    between atoms: _48  and  _49
REMARK   21  A    between atoms: _49  and  _50
REMARK   22  A    between atoms: _50  and  MN_375
REMARK   23  A    between atoms: _52  and  _54
REMARK   24  A    between atoms: _54  and  _55
REMARK   25  A    between atoms: _54  and  _57
REMARK   26  A    between atoms: _57  and  _58
REMARK   27  A    between atoms: _58  and  _59
REMARK   28  A    between atoms: _64  and  _66
REMARK   29  A    between atoms: _66  and  _67
REMARK   30  A    between atoms: _70  and  _72
REMARK   31  A    between atoms: _72  and  _73
REMARK   32  A    between atoms: _72  and  _75
REMARK   33  A    between atoms: _75  and  _76
REMARK   34  A    between atoms: _86  and  _88
REMARK   35  A    between atoms: _88  and  _89
REMARK   36  A    between atoms: _88  and  _91
REMARK   37  A    between atoms: _91  and  _92
REMARK   38  A    between atoms: _102  and  _104
REMARK   39  A    between atoms: _104  and  _105
REMARK   40  A    between atoms: _104  and  _107
REMARK   41  A    between atoms: _107  and  _108
REMARK   42  A    between atoms: _111  and  _113
REMARK   43  A    between atoms: _113  and  _114
REMARK   44  A    between atoms: _113  and  _116
REMARK   45  A    between atoms: _116  and  _117
REMARK   46  A    between atoms: _123  and  _125
REMARK   47  A    between atoms: _125  and  _126
REMARK   48  A    between atoms: _125  and  _128
REMARK   49  A    between atoms: _128  and  _129
REMARK   50  A    between atoms: _132  and  _134
REMARK   51  A    between atoms: _134  and  _135
REMARK   52  A    between atoms: _134  and  _137
REMARK   53  A    between atoms: _137  and  _138
REMARK   54  A    between atoms: _143  and  _144
REMARK   55  A    between atoms: _146  and  _148
REMARK   56  A    between atoms: _148  and  _149
REMARK   57  A    between atoms: _148  and  _151
REMARK   58  A    between atoms: _151  and  _152
REMARK   59  A    between atoms: _157  and  _158
REMARK   60  A    between atoms: _160  and  _162
REMARK   61  A    between atoms: _162  and  _163
REMARK   62  A    between atoms: _162  and  _165
REMARK   63  A    between atoms: _165  and  _166
REMARK   64  A    between atoms: _171  and  _172
REMARK   65  A    between atoms: _174  and  _176
REMARK   66  A    between atoms: _176  and  _177
REMARK   67  A    between atoms: _176  and  _179
REMARK   68  A    between atoms: _179  and  _180
REMARK   69  A    between atoms: _185  and  _187
REMARK   70  A    between atoms: _187  and  _188
REMARK   71  A    between atoms: _191  and  _193
REMARK   72  A    between atoms: _193  and  _194
REMARK   73  A    between atoms: _197  and  _199
REMARK   74  A    between atoms: _199  and  _200
REMARK   75  A    between atoms: _199  and  _202
REMARK   76  A    between atoms: _202  and  _203
REMARK   77  A    between atoms: _203  and  _204
REMARK   78  A    between atoms: _209  and  _211
REMARK   79  A    between atoms: _211  and  _212
REMARK   80  A    between atoms: _211  and  _214
REMARK   81  A    between atoms: _214  and  _215
REMARK   82  A    between atoms: _225  and  _227
REMARK   83  A    between atoms: _227  and  _228
REMARK   84  A    between atoms: _227  and  _230
REMARK   85  A    between atoms: _230  and  _231
REMARK   86  A    between atoms: _236  and  _238
REMARK   87  A    between atoms: _238  and  _239
REMARK   88  A    between atoms: _238  and  _241
REMARK   89  A    between atoms: _241  and  _242
REMARK   90  A    between atoms: _242  and  _243
REMARK   91  A    between atoms: _246  and  _248
REMARK   92  A    between atoms: _248  and  _249
REMARK   93  A    between atoms: _248  and  _251
REMARK   94  A    between atoms: _251  and  _252
REMARK   95  A    between atoms: _254  and  _256
REMARK   96  A    between atoms: _256  and  _257
REMARK   97  A    between atoms: _256  and  _259
REMARK   98  A    between atoms: _259  and  _260
REMARK   99  A    between atoms: _265  and  _267
REMARK  100  A    between atoms: _267  and  _268
REMARK  101  A    between atoms: _267  and  _270
REMARK  102  A    between atoms: _270  and  _271
REMARK  103  A    between atoms: _274  and  _276
REMARK  104  A    between atoms: _276  and  _277
REMARK  105  A    between atoms: _276  and  _279
REMARK  106  A    between atoms: _279  and  _280
REMARK  107  A    between atoms: _285  and  _287
REMARK  108  A    between atoms: _287  and  _288
REMARK  109  A    between atoms: _287  and  _290
REMARK  110  A    between atoms: _290  and  _291
REMARK  111  A    between atoms: _294  and  _296
REMARK  112  A    between atoms: _296  and  _297
REMARK  113  A    between atoms: _296  and  _299
REMARK  114  A    between atoms: _299  and  _300
REMARK  115  A    between atoms: _310  and  _312
REMARK  116  A    between atoms: _312  and  _313
REMARK  117  A    between atoms: _312  and  _315
REMARK  118  A    between atoms: _315  and  _316
REMARK  119  A    between atoms: _316  and  _317
REMARK  120  A    between atoms: _322  and  _324
REMARK  121  A    between atoms: _324  and  _325
REMARK  122  A    between atoms: _324  and  _327
REMARK  123  A    between atoms: _327  and  _328
REMARK  124  A    between atoms: _331  and  _333
REMARK  125  A    between atoms: _333  and  _334
REMARK  126  A    between atoms: _333  and  _336
REMARK  127  A    between atoms: _336  and  _337
REMARK  128  A    between atoms: _337  and  _338
REMARK  129  A    between atoms: _338  and  _339
REMARK  130  A    between atoms: _339  and  _340
REMARK  131  A    between atoms: _344  and  _346
REMARK  132  A    between atoms: _346  and  _347
REMARK  133  A    between atoms: _346  and  _349
REMARK  134  A    between atoms: _349  and  _350
REMARK  135  A    between atoms: _355  and  _356
REMARK  136  A    between atoms: _358  and  _360
REMARK  137  A    between atoms: _360  and  _361
REMARK  138  A    between atoms: _360  and  _363
REMARK  139  A    between atoms: _363  and  _364
REMARK  140  A    between atoms: _364  and  _365
REMARK  141  A    between atoms: _365  and  _366
REMARK                            x       y       z     vdW  Elec       q    Type
REMARK                         _______ _______ _______ _____ _____    ______ ____
ROOT
ATOM      1  O   HOH     1       9.403   8.965  50.927  0.00  0.00    +0.000 OA
ENDROOT
TORSDOF 0
REMARK  Name = ../refined-set-2016/1gwv/1gwv_pocket.pdb
REMARK  141 active torsions:
REMARK  status: ('A' for Active; 'I' for Inactive)
REMARK    1  A    between atoms: _1  and  _3
REMARK    2  A    between atoms: _3  and  _4
REMARK    3  A    between atoms: _3  and  _6
REMARK    4  A    between atoms: _6  and  _7
REMARK    5  A    between atoms: _17  and  _19
REMARK    6  A    between atoms: _19  and  _20
REMARK    7  A    between atoms: _19  and  _22
REMARK    8  A    between atoms: _22  and  _23
REMARK    9  A    between atoms: _23  and  _24
REMARK   10  A    between atoms: _24  and  _25
REMARK   11  A    between atoms: _34  and  _36
REMARK   12  A    between atoms: _36  and  _37
REMARK   13  A    between atoms: _36  and  _39
REMARK   14  A    between atoms: _39  and  _40
REMARK   15  A    between atoms: _40  and  _42
REMARK   16  A    between atoms: _42  and  MN_375
REMARK   17  A    between atoms: _43  and  _45
REMARK   18  A    between atoms: _45  and  _46
REMARK   19  A    between atoms: _45  and  _48
REMARK   20  A    between atoms: _48  and  _49
REMARK   21  A    between atoms: _49  and  _50
REMARK   22  A    between atoms: _50  and  MN_375
REMARK   23  A    between atoms: _52  and  _54
REMARK   24  A    between atoms: _54  and  _55
REMARK   25  A    between atoms: _54  and  _57
REMARK   26  A    between atoms: _57  and  _58
REMARK   27  A    between atoms: _58  and  _59
REMARK   28  A    between atoms: _64  and  _66
REMARK   29  A    between atoms: _66  and  _67
REMARK   30  A    between atoms: _70  and  _72
REMARK   31  A    between atoms: _72  and  _73
REMARK   32  A    between atoms: _72  and  _75
REMARK   33  A    between atoms: _75  and  _76
REMARK   34  A    between atoms: _86  and  _88
REMARK   35  A    between atoms: _88  and  _89
REMARK   36  A    between atoms: _88  and  _91
REMARK   37  A    between atoms: _91  and  _92
REMARK   38  A    between atoms: _102  and  _104
REMARK   39  A    between atoms: _104  and  _105
REMARK   40  A    between atoms: _104  and  _107
REMARK   41  A    between atoms: _107  and  _108
REMARK   42  A    between atoms: _111  and  _113
REMARK   43  A    between atoms: _113  and  _114
REMARK   44  A    between atoms: _113  and  _116
REMARK   45  A    between atoms: _116  and  _117
REMARK   46  A    between atoms: _123  and  _125
REMARK   47  A    between atoms: _125  and  _126
REMARK   48  A    between atoms: _125  and  _128
REMARK   49  A    between atoms: _128  and  _129
REMARK   50  A    between atoms: _132  and  _134
REMARK   51  A    between atoms: _134  and  _135
REMARK   52  A    between atoms: _134  and  _137
REMARK   53  A    between atoms: _137  and  _138
REMARK   54  A    between atoms: _143  and  _144
REMARK   55  A    between atoms: _146  and  _148
REMARK   56  A    between atoms: _148  and  _149
REMARK   57  A    between atoms: _148  and  _151
REMARK   58  A    between atoms: _151  and  _152
REMARK   59  A    between atoms: _157  and  _158
REMARK   60  A    between atoms: _160  and  _162
REMARK   61  A    between atoms: _162  and  _163
REMARK   62  A    between atoms: _162  and  _165
REMARK   63  A    between atoms: _165  and  _166
REMARK   64  A    between atoms: _171  and  _172
REMARK   65  A    between atoms: _174  and  _176
REMARK   66  A    between atoms: _176  and  _177
REMARK   67  A    between atoms: _176  and  _179
REMARK   68  A    between atoms: _179  and  _180
REMARK   69  A    between atoms: _185  and  _187
REMARK   70  A    between atoms: _187  and  _188
REMARK   71  A    between atoms: _191  and  _193
REMARK   72  A    between atoms: _193  and  _194
REMARK   73  A    between atoms: _197  and  _199
REMARK   74  A    between atoms: _199  and  _200
REMARK   75  A    between atoms: _199  and  _202
REMARK   76  A    between atoms: _202  and  _203
REMARK   77  A    between atoms: _203  and  _204
REMARK   78  A    between atoms: _209  and  _211
REMARK   79  A    between atoms: _211  and  _212
REMARK   80  A    between atoms: _211  and  _214
REMARK   81  A    between atoms: _214  and  _215
REMARK   82  A    between atoms: _225  and  _227
REMARK   83  A    between atoms: _227  and  _228
REMARK   84  A    between atoms: _227  and  _230
REMARK   85  A    between atoms: _230  and  _231
REMARK   86  A    between atoms: _236  and  _238
REMARK   87  A    between atoms: _238  and  _239
REMARK   88  A    between atoms: _238  and  _241
REMARK   89  A    between atoms: _241  and  _242
REMARK   90  A    between atoms: _242  and  _243
REMARK   91  A    between atoms: _246  and  _248
REMARK   92  A    between atoms: _248  and  _249
REMARK   93  A    between atoms: _248  and  _251
REMARK   94  A    between atoms: _251  and  _252
REMARK   95  A    between atoms: _254  and  _256
REMARK   96  A    between atoms: _256  and  _257
REMARK   97  A    between atoms: _256  and  _259
REMARK   98  A    between atoms: _259  and  _260
REMARK   99  A    between atoms: _265  and  _267
REMARK  100  A    between atoms: _267  and  _268
REMARK  101  A    between atoms: _267  and  _270
REMARK  102  A    between atoms: _270  and  _271
REMARK  103  A    between atoms: _274  and  _276
REMARK  104  A    between atoms: _276  and  _277
REMARK  105  A    between atoms: _276  and  _279
REMARK  106  A    between atoms: _279  and  _280
REMARK  107  A    between atoms: _285  and  _287
REMARK  108  A    between atoms: _287  and  _288
REMARK  109  A    between atoms: _287  and  _290
REMARK  110  A    between atoms: _290  and  _291
REMARK  111  A    between atoms: _294  and  _296
REMARK  112  A    between atoms: _296  and  _297
REMARK  113  A    between atoms: _296  and  _299
REMARK  114  A    between atoms: _299  and  _300
REMARK  115  A    between atoms: _310  and  _312
REMARK  116  A    between atoms: _312  and  _313
REMARK  117  A    between atoms: _312  and  _315
REMARK  118  A    between atoms: _315  and  _316
REMARK  119  A    between atoms: _316  and  _317
REMARK  120  A    between atoms: _322  and  _324
REMARK  121  A    between atoms: _324  and  _325
REMARK  122  A    between atoms: _324  and  _327
REMARK  123  A    between atoms: _327  and  _328
REMARK  124  A    between atoms: _331  and  _333
REMARK  125  A    between atoms: _333  and  _334
REMARK  126  A    between atoms: _333  and  _336
REMARK  127  A    between atoms: _336  and  _337
REMARK  128  A    between atoms: _337  and  _338
REMARK  129  A    between atoms: _338  and  _339
REMARK  130  A    between atoms: _339  and  _340
REMARK  131  A    between atoms: _344  and  _346
REMARK  132  A    between atoms: _346  and  _347
REMARK  133  A    between atoms: _346  and  _349
REMARK  134  A    between atoms: _349  and  _350
REMARK  135  A    between atoms: _355  and  _356
REMARK  136  A    between atoms: _358  and  _360
REMARK  137  A    between atoms: _360  and  _361
REMARK  138  A    between atoms: _360  and  _363
REMARK  139  A    between atoms: _363  and  _364
REMARK  140  A    between atoms: _364  and  _365
REMARK  141  A    between atoms: _365  and  _366
REMARK                            x       y       z     vdW  Elec       q    Type
REMARK                         _______ _______ _______ _____ _____    ______ ____
ROOT
ATOM      1  O   HOH     1       2.217  11.545  51.912  0.00  0.00    +0.000 OA
ENDROOT
TORSDOF 0
REMARK  Name = ../refined-set-2016/1gwv/1gwv_pocket.pdb
REMARK  141 active torsions:
REMARK  status: ('A' for Active; 'I' for Inactive)
REMARK    1  A    between atoms: _1  and  _3
REMARK    2  A    between atoms: _3  and  _4
REMARK    3  A    between atoms: _3  and  _6
REMARK    4  A    between atoms: _6  and  _7
REMARK    5  A    between atoms: _17  and  _19
REMARK    6  A    between atoms: _19  and  _20
REMARK    7  A    between atoms: _19  and  _22
REMARK    8  A    between atoms: _22  and  _23
REMARK    9  A    between atoms: _23  and  _24
REMARK   10  A    between atoms: _24  and  _25
REMARK   11  A    between atoms: _34  and  _36
REMARK   12  A    between atoms: _36  and  _37
REMARK   13  A    between atoms: _36  and  _39
REMARK   14  A    between atoms: _39  and  _40
REMARK   15  A    between atoms: _40  and  _42
REMARK   16  A    between atoms: _42  and  MN_375
REMARK   17  A    between atoms: _43  and  _45
REMARK   18  A    between atoms: _45  and  _46
REMARK   19  A    between atoms: _45  and  _48
REMARK   20  A    between atoms: _48  and  _49
REMARK   21  A    between atoms: _49  and  _50
REMARK   22  A    between atoms: _50  and  MN_375
REMARK   23  A    between atoms: _52  and  _54
REMARK   24  A    between atoms: _54  and  _55
REMARK   25  A    between atoms: _54  and  _57
REMARK   26  A    between atoms: _57  and  _58
REMARK   27  A    between atoms: _58  and  _59
REMARK   28  A    between atoms: _64  and  _66
REMARK   29  A    between atoms: _66  and  _67
REMARK   30  A    between atoms: _70  and  _72
REMARK   31  A    between atoms: _72  and  _73
REMARK   32  A    between atoms: _72  and  _75
REMARK   33  A    between atoms: _75  and  _76
REMARK   34  A    between atoms: _86  and  _88
REMARK   35  A    between atoms: _88  and  _89
REMARK   36  A    between atoms: _88  and  _91
REMARK   37  A    between atoms: _91  and  _92
REMARK   38  A    between atoms: _102  and  _104
REMARK   39  A    between atoms: _104  and  _105
REMARK   40  A    between atoms: _104  and  _107
REMARK   41  A    between atoms: _107  and  _108
REMARK   42  A    between atoms: _111  and  _113
REMARK   43  A    between atoms: _113  and  _114
REMARK   44  A    between atoms: _113  and  _116
REMARK   45  A    between atoms: _116  and  _117
REMARK   46  A    between atoms: _123  and  _125
REMARK   47  A    between atoms: _125  and  _126
REMARK   48  A    between atoms: _125  and  _128
REMARK   49  A    between atoms: _128  and  _129
REMARK   50  A    between atoms: _132  and  _134
REMARK   51  A    between atoms: _134  and  _135
REMARK   52  A    between atoms: _134  and  _137
REMARK   53  A    between atoms: _137  and  _138
REMARK   54  A    between atoms: _143  and  _144
REMARK   55  A    between atoms: _146  and  _148
REMARK   56  A    between atoms: _148  and  _149
REMARK   57  A    between atoms: _148  and  _151
REMARK   58  A    between atoms: _151  and  _152
REMARK   59  A    between atoms: _157  and  _158
REMARK   60  A    between atoms: _160  and  _162
REMARK   61  A    between atoms: _162  and  _163
REMARK   62  A    between atoms: _162  and  _165
REMARK   63  A    between atoms: _165  and  _166
REMARK   64  A    between atoms: _171  and  _172
REMARK   65  A    between atoms: _174  and  _176
REMARK   66  A    between atoms: _176  and  _177
REMARK   67  A    between atoms: _176  and  _179
REMARK   68  A    between atoms: _179  and  _180
REMARK   69  A    between atoms: _185  and  _187
REMARK   70  A    between atoms: _187  and  _188
REMARK   71  A    between atoms: _191  and  _193
REMARK   72  A    between atoms: _193  and  _194
REMARK   73  A    between atoms: _197  and  _199
REMARK   74  A    between atoms: _199  and  _200
REMARK   75  A    between atoms: _199  and  _202
REMARK   76  A    between atoms: _202  and  _203
REMARK   77  A    between atoms: _203  and  _204
REMARK   78  A    between atoms: _209  and  _211
REMARK   79  A    between atoms: _211  and  _212
REMARK   80  A    between atoms: _211  and  _214
REMARK   81  A    between atoms: _214  and  _215
REMARK   82  A    between atoms: _225  and  _227
REMARK   83  A    between atoms: _227  and  _228
REMARK   84  A    between atoms: _227  and  _230
REMARK   85  A    between atoms: _230  and  _231
REMARK   86  A    between atoms: _236  and  _238
REMARK   87  A    between atoms: _238  and  _239
REMARK   88  A    between atoms: _238  and  _241
REMARK   89  A    between atoms: _241  and  _242
REMARK   90  A    between atoms: _242  and  _243
REMARK   91  A    between atoms: _246  and  _248
REMARK   92  A    between atoms: _248  and  _249
REMARK   93  A    between atoms: _248  and  _251
REMARK   94  A    between atoms: _251  and  _252
REMARK   95  A    between atoms: _254  and  _256
REMARK   96  A    between atoms: _256  and  _257
REMARK   97  A    between atoms: _256  and  _259
REMARK   98  A    between atoms: _259  and  _260
REMARK   99  A    between atoms: _265  and  _267
REMARK  100  A    between atoms: _267  and  _268
REMARK  101  A    between atoms: _267  and  _270
REMARK  102  A    between atoms: _270  and  _271
REMARK  103  A    between atoms: _274  and  _276
REMARK  104  A    between atoms: _276  and  _277
REMARK  105  A    between atoms: _276  and  _279
REMARK  106  A    between atoms: _279  and  _280
REMARK  107  A    between atoms: _285  and  _287
REMARK  108  A    between atoms: _287  and  _288
REMARK  109  A    between atoms: _287  and  _290
REMARK  110  A    between atoms: _290  and  _291
REMARK  111  A    between atoms: _294  and  _296
REMARK  112  A    between atoms: _296  and  _297
REMARK  113  A    between atoms: _296  and  _299
REMARK  114  A    between atoms: _299  and  _300
REMARK  115  A    between atoms: _310  and  _312
REMARK  116  A    between atoms: _312  and  _313
REMARK  117  A    between atoms: _312  and  _315
REMARK  118  A    between atoms: _315  and  _316
REMARK  119  A    between atoms: _316  and  _317
REMARK  120  A    between atoms: _322  and  _324
REMARK  121  A    between atoms: _324  and  _325
REMARK  122  A    between atoms: _324  and  _327
REMARK  123  A    between atoms: _327  and  _328
REMARK  124  A    between atoms: _331  and  _333
REMARK  125  A    between atoms: _333  and  _334
REMARK  126  A    between atoms: _333  and  _336
REMARK  127  A    between atoms: _336  and  _337
REMARK  128  A    between atoms: _337  and  _338
REMARK  129  A    between atoms: _338  and  _339
REMARK  130  A    between atoms: _339  and  _340
REMARK  131  A    between atoms: _344  and  _346
REMARK  132  A    between atoms: _346  and  _347
REMARK  133  A    between atoms: _346  and  _349
REMARK  134  A    between atoms: _349  and  _350
REMARK  135  A    between atoms: _355  and  _356
REMARK  136  A    between atoms: _358  and  _360
REMARK  137  A    between atoms: _360  and  _361
REMARK  138  A    between atoms: _360  and  _363
REMARK  139  A    between atoms: _363  and  _364
REMARK  140  A    between atoms: _364  and  _365
REMARK  141  A    between atoms: _365  and  _366
REMARK                            x       y       z     vdW  Elec       q    Type
REMARK                         _______ _______ _______ _____ _____    ______ ____
ROOT
ATOM      1  O   HOH     1       2.416   8.508  49.487  0.00  0.00    +0.000 OA
ENDROOT
TORSDOF 0
REMARK  Name = ../refined-set-2016/1gwv/1gwv_pocket.pdb
REMARK  141 active torsions:
REMARK  status: ('A' for Active; 'I' for Inactive)
REMARK    1  A    between atoms: _1  and  _3
REMARK    2  A    between atoms: _3  and  _4
REMARK    3  A    between atoms: _3  and  _6
REMARK    4  A    between atoms: _6  and  _7
REMARK    5  A    between atoms: _17  and  _19
REMARK    6  A    between atoms: _19  and  _20
REMARK    7  A    between atoms: _19  and  _22
REMARK    8  A    between atoms: _22  and  _23
REMARK    9  A    between atoms: _23  and  _24
REMARK   10  A    between atoms: _24  and  _25
REMARK   11  A    between atoms: _34  and  _36
REMARK   12  A    between atoms: _36  and  _37
REMARK   13  A    between atoms: _36  and  _39
REMARK   14  A    between atoms: _39  and  _40
REMARK   15  A    between atoms: _40  and  _42
REMARK   16  A    between atoms: _42  and  MN_375
REMARK   17  A    between atoms: _43  and  _45
REMARK   18  A    between atoms: _45  and  _46
REMARK   19  A    between atoms: _45  and  _48
REMARK   20  A    between atoms: _48  and  _49
REMARK   21  A    between atoms: _49  and  _50
REMARK   22  A    between atoms: _50  and  MN_375
REMARK   23  A    between atoms: _52  and  _54
REMARK   24  A    between atoms: _54  and  _55
REMARK   25  A    between atoms: _54  and  _57
REMARK   26  A    between atoms: _57  and  _58
REMARK   27  A    between atoms: _58  and  _59
REMARK   28  A    between atoms: _64  and  _66
REMARK   29  A    between atoms: _66  and  _67
REMARK   30  A    between atoms: _70  and  _72
REMARK   31  A    between atoms: _72  and  _73
REMARK   32  A    between atoms: _72  and  _75
REMARK   33  A    between atoms: _75  and  _76
REMARK   34  A    between atoms: _86  and  _88
REMARK   35  A    between atoms: _88  and  _89
REMARK   36  A    between atoms: _88  and  _91
REMARK   37  A    between atoms: _91  and  _92
REMARK   38  A    between atoms: _102  and  _104
REMARK   39  A    between atoms: _104  and  _105
REMARK   40  A    between atoms: _104  and  _107
REMARK   41  A    between atoms: _107  and  _108
REMARK   42  A    between atoms: _111  and  _113
REMARK   43  A    between atoms: _113  and  _114
REMARK   44  A    between atoms: _113  and  _116
REMARK   45  A    between atoms: _116  and  _117
REMARK   46  A    between atoms: _123  and  _125
REMARK   47  A    between atoms: _125  and  _126
REMARK   48  A    between atoms: _125  and  _128
REMARK   49  A    between atoms: _128  and  _129
REMARK   50  A    between atoms: _132  and  _134
REMARK   51  A    between atoms: _134  and  _135
REMARK   52  A    between atoms: _134  and  _137
REMARK   53  A    between atoms: _137  and  _138
REMARK   54  A    between atoms: _143  and  _144
REMARK   55  A    between atoms: _146  and  _148
REMARK   56  A    between atoms: _148  and  _149
REMARK   57  A    between atoms: _148  and  _151
REMARK   58  A    between atoms: _151  and  _152
REMARK   59  A    between atoms: _157  and  _158
REMARK   60  A    between atoms: _160  and  _162
REMARK   61  A    between atoms: _162  and  _163
REMARK   62  A    between atoms: _162  and  _165
REMARK   63  A    between atoms: _165  and  _166
REMARK   64  A    between atoms: _171  and  _172
REMARK   65  A    between atoms: _174  and  _176
REMARK   66  A    between atoms: _176  and  _177
REMARK   67  A    between atoms: _176  and  _179
REMARK   68  A    between atoms: _179  and  _180
REMARK   69  A    between atoms: _185  and  _187
REMARK   70  A    between atoms: _187  and  _188
REMARK   71  A    between atoms: _191  and  _193
REMARK   72  A    between atoms: _193  and  _194
REMARK   73  A    between atoms: _197  and  _199
REMARK   74  A    between atoms: _199  and  _200
REMARK   75  A    between atoms: _199  and  _202
REMARK   76  A    between atoms: _202  and  _203
REMARK   77  A    between atoms: _203  and  _204
REMARK   78  A    between atoms: _209  and  _211
REMARK   79  A    between atoms: _211  and  _212
REMARK   80  A    between atoms: _211  and  _214
REMARK   81  A    between atoms: _214  and  _215
REMARK   82  A    between atoms: _225  and  _227
REMARK   83  A    between atoms: _227  and  _228
REMARK   84  A    between atoms: _227  and  _230
REMARK   85  A    between atoms: _230  and  _231
REMARK   86  A    between atoms: _236  and  _238
REMARK   87  A    between atoms: _238  and  _239
REMARK   88  A    between atoms: _238  and  _241
REMARK   89  A    between atoms: _241  and  _242
REMARK   90  A    between atoms: _242  and  _243
REMARK   91  A    between atoms: _246  and  _248
REMARK   92  A    between atoms: _248  and  _249
REMARK   93  A    between atoms: _248  and  _251
REMARK   94  A    between atoms: _251  and  _252
REMARK   95  A    between atoms: _254  and  _256
REMARK   96  A    between atoms: _256  and  _257
REMARK   97  A    between atoms: _256  and  _259
REMARK   98  A    between atoms: _259  and  _260
REMARK   99  A    between atoms: _265  and  _267
REMARK  100  A    between atoms: _267  and  _268
REMARK  101  A    between atoms: _267  and  _270
REMARK  102  A    between atoms: _270  and  _271
REMARK  103  A    between atoms: _274  and  _276
REMARK  104  A    between atoms: _276  and  _277
REMARK  105  A    between atoms: _276  and  _279
REMARK  106  A    between atoms: _279  and  _280
REMARK  107  A    between atoms: _285  and  _287
REMARK  108  A    between atoms: _287  and  _288
REMARK  109  A    between atoms: _287  and  _290
REMARK  110  A    between atoms: _290  and  _291
REMARK  111  A    between atoms: _294  and  _296
REMARK  112  A    between atoms: _296  and  _297
REMARK  113  A    between atoms: _296  and  _299
REMARK  114  A    between atoms: _299  and  _300
REMARK  115  A    between atoms: _310  and  _312
REMARK  116  A    between atoms: _312  and  _313
REMARK  117  A    between atoms: _312  and  _315
REMARK  118  A    between atoms: _315  and  _316
REMARK  119  A    between atoms: _316  and  _317
REMARK  120  A    between atoms: _322  and  _324
REMARK  121  A    between atoms: _324  and  _325
REMARK  122  A    between atoms: _324  and  _327
REMARK  123  A    between atoms: _327  and  _328
REMARK  124  A    between atoms: _331  and  _333
REMARK  125  A    between atoms: _333  and  _334
REMARK  126  A    between atoms: _333  and  _336
REMARK  127  A    between atoms: _336  and  _337
REMARK  128  A    between atoms: _337  and  _338
REMARK  129  A    between atoms: _338  and  _339
REMARK  130  A    between atoms: _339  and  _340
REMARK  131  A    between atoms: _344  and  _346
REMARK  132  A    between atoms: _346  and  _347
REMARK  133  A    between atoms: _346  and  _349
REMARK  134  A    between atoms: _349  and  _350
REMARK  135  A    between atoms: _355  and  _356
REMARK  136  A    between atoms: _358  and  _360
REMARK  137  A    between atoms: _360  and  _361
REMARK  138  A    between atoms: _360  and  _363
REMARK  139  A    between atoms: _363  and  _364
REMARK  140  A    between atoms: _364  and  _365
REMARK  141  A    between atoms: _365  and  _366
REMARK                            x       y       z     vdW  Elec       q    Type
REMARK                         _______ _______ _______ _____ _____    ______ ____
ROOT
ATOM      1  O   HOH     1      12.035  11.662  48.359  0.00  0.00    +0.000 OA
ENDROOT
TORSDOF 0
REMARK  Name = ../refined-set-2016/1gwv/1gwv_pocket.pdb
REMARK  141 active torsions:
REMARK  status: ('A' for Active; 'I' for Inactive)
REMARK    1  A    between atoms: _1  and  _3
REMARK    2  A    between atoms: _3  and  _4
REMARK    3  A    between atoms: _3  and  _6
REMARK    4  A    between atoms: _6  and  _7
REMARK    5  A    between atoms: _17  and  _19
REMARK    6  A    between atoms: _19  and  _20
REMARK    7  A    between atoms: _19  and  _22
REMARK    8  A    between atoms: _22  and  _23
REMARK    9  A    between atoms: _23  and  _24
REMARK   10  A    between atoms: _24  and  _25
REMARK   11  A    between atoms: _34  and  _36
REMARK   12  A    between atoms: _36  and  _37
REMARK   13  A    between atoms: _36  and  _39
REMARK   14  A    between atoms: _39  and  _40
REMARK   15  A    between atoms: _40  and  _42
REMARK   16  A    between atoms: _42  and  MN_375
REMARK   17  A    between atoms: _43  and  _45
REMARK   18  A    between atoms: _45  and  _46
REMARK   19  A    between atoms: _45  and  _48
REMARK   20  A    between atoms: _48  and  _49
REMARK   21  A    between atoms: _49  and  _50
REMARK   22  A    between atoms: _50  and  MN_375
REMARK   23  A    between atoms: _52  and  _54
REMARK   24  A    between atoms: _54  and  _55
REMARK   25  A    between atoms: _54  and  _57
REMARK   26  A    between atoms: _57  and  _58
REMARK   27  A    between atoms: _58  and  _59
REMARK   28  A    between atoms: _64  and  _66
REMARK   29  A    between atoms: _66  and  _67
REMARK   30  A    between atoms: _70  and  _72
REMARK   31  A    between atoms: _72  and  _73
REMARK   32  A    between atoms: _72  and  _75
REMARK   33  A    between atoms: _75  and  _76
REMARK   34  A    between atoms: _86  and  _88
REMARK   35  A    between atoms: _88  and  _89
REMARK   36  A    between atoms: _88  and  _91
REMARK   37  A    between atoms: _91  and  _92
REMARK   38  A    between atoms: _102  and  _104
REMARK   39  A    between atoms: _104  and  _105
REMARK   40  A    between atoms: _104  and  _107
REMARK   41  A    between atoms: _107  and  _108
REMARK   42  A    between atoms: _111  and  _113
REMARK   43  A    between atoms: _113  and  _114
REMARK   44  A    between atoms: _113  and  _116
REMARK   45  A    between atoms: _116  and  _117
REMARK   46  A    between atoms: _123  and  _125
REMARK   47  A    between atoms: _125  and  _126
REMARK   48  A    between atoms: _125  and  _128
REMARK   49  A    between atoms: _128  and  _129
REMARK   50  A    between atoms: _132  and  _134
REMARK   51  A    between atoms: _134  and  _135
REMARK   52  A    between atoms: _134  and  _137
REMARK   53  A    between atoms: _137  and  _138
REMARK   54  A    between atoms: _143  and  _144
REMARK   55  A    between atoms: _146  and  _148
REMARK   56  A    between atoms: _148  and  _149
REMARK   57  A    between atoms: _148  and  _151
REMARK   58  A    between atoms: _151  and  _152
REMARK   59  A    between atoms: _157  and  _158
REMARK   60  A    between atoms: _160  and  _162
REMARK   61  A    between atoms: _162  and  _163
REMARK   62  A    between atoms: _162  and  _165
REMARK   63  A    between atoms: _165  and  _166
REMARK   64  A    between atoms: _171  and  _172
REMARK   65  A    between atoms: _174  and  _176
REMARK   66  A    between atoms: _176  and  _177
REMARK   67  A    between atoms: _176  and  _179
REMARK   68  A    between atoms: _179  and  _180
REMARK   69  A    between atoms: _185  and  _187
REMARK   70  A    between atoms: _187  and  _188
REMARK   71  A    between atoms: _191  and  _193
REMARK   72  A    between atoms: _193  and  _194
REMARK   73  A    between atoms: _197  and  _199
REMARK   74  A    between atoms: _199  and  _200
REMARK   75  A    between atoms: _199  and  _202
REMARK   76  A    between atoms: _202  and  _203
REMARK   77  A    between atoms: _203  and  _204
REMARK   78  A    between atoms: _209  and  _211
REMARK   79  A    between atoms: _211  and  _212
REMARK   80  A    between atoms: _211  and  _214
REMARK   81  A    between atoms: _214  and  _215
REMARK   82  A    between atoms: _225  and  _227
REMARK   83  A    between atoms: _227  and  _228
REMARK   84  A    between atoms: _227  and  _230
REMARK   85  A    between atoms: _230  and  _231
REMARK   86  A    between atoms: _236  and  _238
REMARK   87  A    between atoms: _238  and  _239
REMARK   88  A    between atoms: _238  and  _241
REMARK   89  A    between atoms: _241  and  _242
REMARK   90  A    between atoms: _242  and  _243
REMARK   91  A    between atoms: _246  and  _248
REMARK   92  A    between atoms: _248  and  _249
REMARK   93  A    between atoms: _248  and  _251
REMARK   94  A    between atoms: _251  and  _252
REMARK   95  A    between atoms: _254  and  _256
REMARK   96  A    between atoms: _256  and  _257
REMARK   97  A    between atoms: _256  and  _259
REMARK   98  A    between atoms: _259  and  _260
REMARK   99  A    between atoms: _265  and  _267
REMARK  100  A    between atoms: _267  and  _268
REMARK  101  A    between atoms: _267  and  _270
REMARK  102  A    between atoms: _270  and  _271
REMARK  103  A    between atoms: _274  and  _276
REMARK  104  A    between atoms: _276  and  _277
REMARK  105  A    between atoms: _276  and  _279
REMARK  106  A    between atoms: _279  and  _280
REMARK  107  A    between atoms: _285  and  _287
REMARK  108  A    between atoms: _287  and  _288
REMARK  109  A    between atoms: _287  and  _290
REMARK  110  A    between atoms: _290  and  _291
REMARK  111  A    between atoms: _294  and  _296
REMARK  112  A    between atoms: _296  and  _297
REMARK  113  A    between atoms: _296  and  _299
REMARK  114  A    between atoms: _299  and  _300
REMARK  115  A    between atoms: _310  and  _312
REMARK  116  A    between atoms: _312  and  _313
REMARK  117  A    between atoms: _312  and  _315
REMARK  118  A    between atoms: _315  and  _316
REMARK  119  A    between atoms: _316  and  _317
REMARK  120  A    between atoms: _322  and  _324
REMARK  121  A    between atoms: _324  and  _325
REMARK  122  A    between atoms: _324  and  _327
REMARK  123  A    between atoms: _327  and  _328
REMARK  124  A    between atoms: _331  and  _333
REMARK  125  A    between atoms: _333  and  _334
REMARK  126  A    between atoms: _333  and  _336
REMARK  127  A    between atoms: _336  and  _337
REMARK  128  A    between atoms: _337  and  _338
REMARK  129  A    between atoms: _338  and  _339
REMARK  130  A    between atoms: _339  and  _340
REMARK  131  A    between atoms: _344  and  _346
REMARK  132  A    between atoms: _346  and  _347
REMARK  133  A    between atoms: _346  and  _349
REMARK  134  A    between atoms: _349  and  _350
REMARK  135  A    between atoms: _355  and  _356
REMARK  136  A    between atoms: _358  and  _360
REMARK  137  A    between atoms: _360  and  _361
REMARK  138  A    between atoms: _360  and  _363
REMARK  139  A    between atoms: _363  and  _364
REMARK  140  A    between atoms: _364  and  _365
REMARK  141  A    between atoms: _365  and  _366
REMARK                            x       y       z     vdW  Elec       q    Type
REMARK                         _______ _______ _______ _____ _____    ______ ____
ROOT
ATOM      1  O   HOH     1       3.892  13.206  52.557  0.00  0.00    +0.000 OA
ENDROOT
TORSDOF 0
REMARK  Name = ../refined-set-2016/1gwv/1gwv_pocket.pdb
REMARK  141 active torsions:
REMARK  status: ('A' for Active; 'I' for Inactive)
REMARK    1  A    between atoms: _1  and  _3
REMARK    2  A    between atoms: _3  and  _4
REMARK    3  A    between atoms: _3  and  _6
REMARK    4  A    between atoms: _6  and  _7
REMARK    5  A    between atoms: _17  and  _19
REMARK    6  A    between atoms: _19  and  _20
REMARK    7  A    between atoms: _19  and  _22
REMARK    8  A    between atoms: _22  and  _23
REMARK    9  A    between atoms: _23  and  _24
REMARK   10  A    between atoms: _24  and  _25
REMARK   11  A    between atoms: _34  and  _36
REMARK   12  A    between atoms: _36  and  _37
REMARK   13  A    between atoms: _36  and  _39
REMARK   14  A    between atoms: _39  and  _40
REMARK   15  A    between atoms: _40  and  _42
REMARK   16  A    between atoms: _42  and  MN_375
REMARK   17  A    between atoms: _43  and  _45
REMARK   18  A    between atoms: _45  and  _46
REMARK   19  A    between atoms: _45  and  _48
REMARK   20  A    between atoms: _48  and  _49
REMARK   21  A    between atoms: _49  and  _50
REMARK   22  A    between atoms: _50  and  MN_375
REMARK   23  A    between atoms: _52  and  _54
REMARK   24  A    between atoms: _54  and  _55
REMARK   25  A    between atoms: _54  and  _57
REMARK   26  A    between atoms: _57  and  _58
REMARK   27  A    between atoms: _58  and  _59
REMARK   28  A    between atoms: _64  and  _66
REMARK   29  A    between atoms: _66  and  _67
REMARK   30  A    between atoms: _70  and  _72
REMARK   31  A    between atoms: _72  and  _73
REMARK   32  A    between atoms: _72  and  _75
REMARK   33  A    between atoms: _75  and  _76
REMARK   34  A    between atoms: _86  and  _88
REMARK   35  A    between atoms: _88  and  _89
REMARK   36  A    between atoms: _88  and  _91
REMARK   37  A    between atoms: _91  and  _92
REMARK   38  A    between atoms: _102  and  _104
REMARK   39  A    between atoms: _104  and  _105
REMARK   40  A    between atoms: _104  and  _107
REMARK   41  A    between atoms: _107  and  _108
REMARK   42  A    between atoms: _111  and  _113
REMARK   43  A    between atoms: _113  and  _114
REMARK   44  A    between atoms: _113  and  _116
REMARK   45  A    between atoms: _116  and  _117
REMARK   46  A    between atoms: _123  and  _125
REMARK   47  A    between atoms: _125  and  _126
REMARK   48  A    between atoms: _125  and  _128
REMARK   49  A    between atoms: _128  and  _129
REMARK   50  A    between atoms: _132  and  _134
REMARK   51  A    between atoms: _134  and  _135
REMARK   52  A    between atoms: _134  and  _137
REMARK   53  A    between atoms: _137  and  _138
REMARK   54  A    between atoms: _143  and  _144
REMARK   55  A    between atoms: _146  and  _148
REMARK   56  A    between atoms: _148  and  _149
REMARK   57  A    between atoms: _148  and  _151
REMARK   58  A    between atoms: _151  and  _152
REMARK   59  A    between atoms: _157  and  _158
REMARK   60  A    between atoms: _160  and  _162
REMARK   61  A    between atoms: _162  and  _163
REMARK   62  A    between atoms: _162  and  _165
REMARK   63  A    between atoms: _165  and  _166
REMARK   64  A    between atoms: _171  and  _172
REMARK   65  A    between atoms: _174  and  _176
REMARK   66  A    between atoms: _176  and  _177
REMARK   67  A    between atoms: _176  and  _179
REMARK   68  A    between atoms: _179  and  _180
REMARK   69  A    between atoms: _185  and  _187
REMARK   70  A    between atoms: _187  and  _188
REMARK   71  A    between atoms: _191  and  _193
REMARK   72  A    between atoms: _193  and  _194
REMARK   73  A    between atoms: _197  and  _199
REMARK   74  A    between atoms: _199  and  _200
REMARK   75  A    between atoms: _199  and  _202
REMARK   76  A    between atoms: _202  and  _203
REMARK   77  A    between atoms: _203  and  _204
REMARK   78  A    between atoms: _209  and  _211
REMARK   79  A    between atoms: _211  and  _212
REMARK   80  A    between atoms: _211  and  _214
REMARK   81  A    between atoms: _214  and  _215
REMARK   82  A    between atoms: _225  and  _227
REMARK   83  A    between atoms: _227  and  _228
REMARK   84  A    between atoms: _227  and  _230
REMARK   85  A    between atoms: _230  and  _231
REMARK   86  A    between atoms: _236  and  _238
REMARK   87  A    between atoms: _238  and  _239
REMARK   88  A    between atoms: _238  and  _241
REMARK   89  A    between atoms: _241  and  _242
REMARK   90  A    between atoms: _242  and  _243
REMARK   91  A    between atoms: _246  and  _248
REMARK   92  A    between atoms: _248  and  _249
REMARK   93  A    between atoms: _248  and  _251
REMARK   94  A    between atoms: _251  and  _252
REMARK   95  A    between atoms: _254  and  _256
REMARK   96  A    between atoms: _256  and  _257
REMARK   97  A    between atoms: _256  and  _259
REMARK   98  A    between atoms: _259  and  _260
REMARK   99  A    between atoms: _265  and  _267
REMARK  100  A    between atoms: _267  and  _268
REMARK  101  A    between atoms: _267  and  _270
REMARK  102  A    between atoms: _270  and  _271
REMARK  103  A    between atoms: _274  and  _276
REMARK  104  A    between atoms: _276  and  _277
REMARK  105  A    between atoms: _276  and  _279
REMARK  106  A    between atoms: _279  and  _280
REMARK  107  A    between atoms: _285  and  _287
REMARK  108  A    between atoms: _287  and  _288
REMARK  109  A    between atoms: _287  and  _290
REMARK  110  A    between atoms: _290  and  _291
REMARK  111  A    between atoms: _294  and  _296
REMARK  112  A    between atoms: _296  and  _297
REMARK  113  A    between atoms: _296  and  _299
REMARK  114  A    between atoms: _299  and  _300
REMARK  115  A    between atoms: _310  and  _312
REMARK  116  A    between atoms: _312  and  _313
REMARK  117  A    between atoms: _312  and  _315
REMARK  118  A    between atoms: _315  and  _316
REMARK  119  A    between atoms: _316  and  _317
REMARK  120  A    between atoms: _322  and  _324
REMARK  121  A    between atoms: _324  and  _325
REMARK  122  A    between atoms: _324  and  _327
REMARK  123  A    between atoms: _327  and  _328
REMARK  124  A    between atoms: _331  and  _333
REMARK  125  A    between atoms: _333  and  _334
REMARK  126  A    between atoms: _333  and  _336
REMARK  127  A    between atoms: _336  and  _337
REMARK  128  A    between atoms: _337  and  _338
REMARK  129  A    between atoms: _338  and  _339
REMARK  130  A    between atoms: _339  and  _340
REMARK  131  A    between atoms: _344  and  _346
REMARK  132  A    between atoms: _346  and  _347
REMARK  133  A    between atoms: _346  and  _349
REMARK  134  A    between atoms: _349  and  _350
REMARK  135  A    between atoms: _355  and  _356
REMARK  136  A    between atoms: _358  and  _360
REMARK  137  A    between atoms: _360  and  _361
REMARK  138  A    between atoms: _360  and  _363
REMARK  139  A    between atoms: _363  and  _364
REMARK  140  A    between atoms: _364  and  _365
REMARK  141  A    between atoms: _365  and  _366
REMARK                            x       y       z     vdW  Elec       q    Type
REMARK                         _______ _______ _______ _____ _____    ______ ____
ROOT
ATOM      1  O   HOH     1       3.361   9.227  51.542  0.00  0.00    +0.000 OA
ENDROOT
TORSDOF 0
REMARK  Name = ../refined-set-2016/1gwv/1gwv_pocket.pdb
REMARK  141 active torsions:
REMARK  status: ('A' for Active; 'I' for Inactive)
REMARK    1  A    between atoms: _1  and  _3
REMARK    2  A    between atoms: _3  and  _4
REMARK    3  A    between atoms: _3  and  _6
REMARK    4  A    between atoms: _6  and  _7
REMARK    5  A    between atoms: _17  and  _19
REMARK    6  A    between atoms: _19  and  _20
REMARK    7  A    between atoms: _19  and  _22
REMARK    8  A    between atoms: _22  and  _23
REMARK    9  A    between atoms: _23  and  _24
REMARK   10  A    between atoms: _24  and  _25
REMARK   11  A    between atoms: _34  and  _36
REMARK   12  A    between atoms: _36  and  _37
REMARK   13  A    between atoms: _36  and  _39
REMARK   14  A    between atoms: _39  and  _40
REMARK   15  A    between atoms: _40  and  _42
REMARK   16  A    between atoms: _42  and  MN_375
REMARK   17  A    between atoms: _43  and  _45
REMARK   18  A    between atoms: _45  and  _46
REMARK   19  A    between atoms: _45  and  _48
REMARK   20  A    between atoms: _48  and  _49
REMARK   21  A    between atoms: _49  and  _50
REMARK   22  A    between atoms: _50  and  MN_375
REMARK   23  A    between atoms: _52  and  _54
REMARK   24  A    between atoms: _54  and  _55
REMARK   25  A    between atoms: _54  and  _57
REMARK   26  A    between atoms: _57  and  _58
REMARK   27  A    between atoms: _58  and  _59
REMARK   28  A    between atoms: _64  and  _66
REMARK   29  A    between atoms: _66  and  _67
REMARK   30  A    between atoms: _70  and  _72
REMARK   31  A    between atoms: _72  and  _73
REMARK   32  A    between atoms: _72  and  _75
REMARK   33  A    between atoms: _75  and  _76
REMARK   34  A    between atoms: _86  and  _88
REMARK   35  A    between atoms: _88  and  _89
REMARK   36  A    between atoms: _88  and  _91
REMARK   37  A    between atoms: _91  and  _92
REMARK   38  A    between atoms: _102  and  _104
REMARK   39  A    between atoms: _104  and  _105
REMARK   40  A    between atoms: _104  and  _107
REMARK   41  A    between atoms: _107  and  _108
REMARK   42  A    between atoms: _111  and  _113
REMARK   43  A    between atoms: _113  and  _114
REMARK   44  A    between atoms: _113  and  _116
REMARK   45  A    between atoms: _116  and  _117
REMARK   46  A    between atoms: _123  and  _125
REMARK   47  A    between atoms: _125  and  _126
REMARK   48  A    between atoms: _125  and  _128
REMARK   49  A    between atoms: _128  and  _129
REMARK   50  A    between atoms: _132  and  _134
REMARK   51  A    between atoms: _134  and  _135
REMARK   52  A    between atoms: _134  and  _137
REMARK   53  A    between atoms: _137  and  _138
REMARK   54  A    between atoms: _143  and  _144
REMARK   55  A    between atoms: _146  and  _148
REMARK   56  A    between atoms: _148  and  _149
REMARK   57  A    between atoms: _148  and  _151
REMARK   58  A    between atoms: _151  and  _152
REMARK   59  A    between atoms: _157  and  _158
REMARK   60  A    between atoms: _160  and  _162
REMARK   61  A    between atoms: _162  and  _163
REMARK   62  A    between atoms: _162  and  _165
REMARK   63  A    between atoms: _165  and  _166
REMARK   64  A    between atoms: _171  and  _172
REMARK   65  A    between atoms: _174  and  _176
REMARK   66  A    between atoms: _176  and  _177
REMARK   67  A    between atoms: _176  and  _179
REMARK   68  A    between atoms: _179  and  _180
REMARK   69  A    between atoms: _185  and  _187
REMARK   70  A    between atoms: _187  and  _188
REMARK   71  A    between atoms: _191  and  _193
REMARK   72  A    between atoms: _193  and  _194
REMARK   73  A    between atoms: _197  and  _199
REMARK   74  A    between atoms: _199  and  _200
REMARK   75  A    between atoms: _199  and  _202
REMARK   76  A    between atoms: _202  and  _203
REMARK   77  A    between atoms: _203  and  _204
REMARK   78  A    between atoms: _209  and  _211
REMARK   79  A    between atoms: _211  and  _212
REMARK   80  A    between atoms: _211  and  _214
REMARK   81  A    between atoms: _214  and  _215
REMARK   82  A    between atoms: _225  and  _227
REMARK   83  A    between atoms: _227  and  _228
REMARK   84  A    between atoms: _227  and  _230
REMARK   85  A    between atoms: _230  and  _231
REMARK   86  A    between atoms: _236  and  _238
REMARK   87  A    between atoms: _238  and  _239
REMARK   88  A    between atoms: _238  and  _241
REMARK   89  A    between atoms: _241  and  _242
REMARK   90  A    between atoms: _242  and  _243
REMARK   91  A    between atoms: _246  and  _248
REMARK   92  A    between atoms: _248  and  _249
REMARK   93  A    between atoms: _248  and  _251
REMARK   94  A    between atoms: _251  and  _252
REMARK   95  A    between atoms: _254  and  _256
REMARK   96  A    between atoms: _256  and  _257
REMARK   97  A    between atoms: _256  and  _259
REMARK   98  A    between atoms: _259  and  _260
REMARK   99  A    between atoms: _265  and  _267
REMARK  100  A    between atoms: _267  and  _268
REMARK  101  A    between atoms: _267  and  _270
REMARK  102  A    between atoms: _270  and  _271
REMARK  103  A    between atoms: _274  and  _276
REMARK  104  A    between atoms: _276  and  _277
REMARK  105  A    between atoms: _276  and  _279
REMARK  106  A    between atoms: _279  and  _280
REMARK  107  A    between atoms: _285  and  _287
REMARK  108  A    between atoms: _287  and  _288
REMARK  109  A    between atoms: _287  and  _290
REMARK  110  A    between atoms: _290  and  _291
REMARK  111  A    between atoms: _294  and  _296
REMARK  112  A    between atoms: _296  and  _297
REMARK  113  A    between atoms: _296  and  _299
REMARK  114  A    between atoms: _299  and  _300
REMARK  115  A    between atoms: _310  and  _312
REMARK  116  A    between atoms: _312  and  _313
REMARK  117  A    between atoms: _312  and  _315
REMARK  118  A    between atoms: _315  and  _316
REMARK  119  A    between atoms: _316  and  _317
REMARK  120  A    between atoms: _322  and  _324
REMARK  121  A    between atoms: _324  and  _325
REMARK  122  A    between atoms: _324  and  _327
REMARK  123  A    between atoms: _327  and  _328
REMARK  124  A    between atoms: _331  and  _333
REMARK  125  A    between atoms: _333  and  _334
REMARK  126  A    between atoms: _333  and  _336
REMARK  127  A    between atoms: _336  and  _337
REMARK  128  A    between atoms: _337  and  _338
REMARK  129  A    between atoms: _338  and  _339
REMARK  130  A    between atoms: _339  and  _340
REMARK  131  A    between atoms: _344  and  _346
REMARK  132  A    between atoms: _346  and  _347
REMARK  133  A    between atoms: _346  and  _349
REMARK  134  A    between atoms: _349  and  _350
REMARK  135  A    between atoms: _355  and  _356
REMARK  136  A    between atoms: _358  and  _360
REMARK  137  A    between atoms: _360  and  _361
REMARK  138  A    between atoms: _360  and  _363
REMARK  139  A    between atoms: _363  and  _364
REMARK  140  A    between atoms: _364  and  _365
REMARK  141  A    between atoms: _365  and  _366
REMARK                            x       y       z     vdW  Elec       q    Type
REMARK                         _______ _______ _______ _____ _____    ______ ____
ROOT
ATOM      1  O   HOH     1       7.812  14.793  47.499  0.00  0.00    +0.000 OA
ENDROOT
TORSDOF 0
REMARK  Name = ../refined-set-2016/1gwv/1gwv_pocket.pdb
REMARK  141 active torsions:
REMARK  status: ('A' for Active; 'I' for Inactive)
REMARK    1  A    between atoms: _1  and  _3
REMARK    2  A    between atoms: _3  and  _4
REMARK    3  A    between atoms: _3  and  _6
REMARK    4  A    between atoms: _6  and  _7
REMARK    5  A    between atoms: _17  and  _19
REMARK    6  A    between atoms: _19  and  _20
REMARK    7  A    between atoms: _19  and  _22
REMARK    8  A    between atoms: _22  and  _23
REMARK    9  A    between atoms: _23  and  _24
REMARK   10  A    between atoms: _24  and  _25
REMARK   11  A    between atoms: _34  and  _36
REMARK   12  A    between atoms: _36  and  _37
REMARK   13  A    between atoms: _36  and  _39
REMARK   14  A    between atoms: _39  and  _40
REMARK   15  A    between atoms: _40  and  _42
REMARK   16  A    between atoms: _42  and  MN_375
REMARK   17  A    between atoms: _43  and  _45
REMARK   18  A    between atoms: _45  and  _46
REMARK   19  A    between atoms: _45  and  _48
REMARK   20  A    between atoms: _48  and  _49
REMARK   21  A    between atoms: _49  and  _50
REMARK   22  A    between atoms: _50  and  MN_375
REMARK   23  A    between atoms: _52  and  _54
REMARK   24  A    between atoms: _54  and  _55
REMARK   25  A    between atoms: _54  and  _57
REMARK   26  A    between atoms: _57  and  _58
REMARK   27  A    between atoms: _58  and  _59
REMARK   28  A    between atoms: _64  and  _66
REMARK   29  A    between atoms: _66  and  _67
REMARK   30  A    between atoms: _70  and  _72
REMARK   31  A    between atoms: _72  and  _73
REMARK   32  A    between atoms: _72  and  _75
REMARK   33  A    between atoms: _75  and  _76
REMARK   34  A    between atoms: _86  and  _88
REMARK   35  A    between atoms: _88  and  _89
REMARK   36  A    between atoms: _88  and  _91
REMARK   37  A    between atoms: _91  and  _92
REMARK   38  A    between atoms: _102  and  _104
REMARK   39  A    between atoms: _104  and  _105
REMARK   40  A    between atoms: _104  and  _107
REMARK   41  A    between atoms: _107  and  _108
REMARK   42  A    between atoms: _111  and  _113
REMARK   43  A    between atoms: _113  and  _114
REMARK   44  A    between atoms: _113  and  _116
REMARK   45  A    between atoms: _116  and  _117
REMARK   46  A    between atoms: _123  and  _125
REMARK   47  A    between atoms: _125  and  _126
REMARK   48  A    between atoms: _125  and  _128
REMARK   49  A    between atoms: _128  and  _129
REMARK   50  A    between atoms: _132  and  _134
REMARK   51  A    between atoms: _134  and  _135
REMARK   52  A    between atoms: _134  and  _137
REMARK   53  A    between atoms: _137  and  _138
REMARK   54  A    between atoms: _143  and  _144
REMARK   55  A    between atoms: _146  and  _148
REMARK   56  A    between atoms: _148  and  _149
REMARK   57  A    between atoms: _148  and  _151
REMARK   58  A    between atoms: _151  and  _152
REMARK   59  A    between atoms: _157  and  _158
REMARK   60  A    between atoms: _160  and  _162
REMARK   61  A    between atoms: _162  and  _163
REMARK   62  A    between atoms: _162  and  _165
REMARK   63  A    between atoms: _165  and  _166
REMARK   64  A    between atoms: _171  and  _172
REMARK   65  A    between atoms: _174  and  _176
REMARK   66  A    between atoms: _176  and  _177
REMARK   67  A    between atoms: _176  and  _179
REMARK   68  A    between atoms: _179  and  _180
REMARK   69  A    between atoms: _185  and  _187
REMARK   70  A    between atoms: _187  and  _188
REMARK   71  A    between atoms: _191  and  _193
REMARK   72  A    between atoms: _193  and  _194
REMARK   73  A    between atoms: _197  and  _199
REMARK   74  A    between atoms: _199  and  _200
REMARK   75  A    between atoms: _199  and  _202
REMARK   76  A    between atoms: _202  and  _203
REMARK   77  A    between atoms: _203  and  _204
REMARK   78  A    between atoms: _209  and  _211
REMARK   79  A    between atoms: _211  and  _212
REMARK   80  A    between atoms: _211  and  _214
REMARK   81  A    between atoms: _214  and  _215
REMARK   82  A    between atoms: _225  and  _227
REMARK   83  A    between atoms: _227  and  _228
REMARK   84  A    between atoms: _227  and  _230
REMARK   85  A    between atoms: _230  and  _231
REMARK   86  A    between atoms: _236  and  _238
REMARK   87  A    between atoms: _238  and  _239
REMARK   88  A    between atoms: _238  and  _241
REMARK   89  A    between atoms: _241  and  _242
REMARK   90  A    between atoms: _242  and  _243
REMARK   91  A    between atoms: _246  and  _248
REMARK   92  A    between atoms: _248  and  _249
REMARK   93  A    between atoms: _248  and  _251
REMARK   94  A    between atoms: _251  and  _252
REMARK   95  A    between atoms: _254  and  _256
REMARK   96  A    between atoms: _256  and  _257
REMARK   97  A    between atoms: _256  and  _259
REMARK   98  A    between atoms: _259  and  _260
REMARK   99  A    between atoms: _265  and  _267
REMARK  100  A    between atoms: _267  and  _268
REMARK  101  A    between atoms: _267  and  _270
REMARK  102  A    between atoms: _270  and  _271
REMARK  103  A    between atoms: _274  and  _276
REMARK  104  A    between atoms: _276  and  _277
REMARK  105  A    between atoms: _276  and  _279
REMARK  106  A    between atoms: _279  and  _280
REMARK  107  A    between atoms: _285  and  _287
REMARK  108  A    between atoms: _287  and  _288
REMARK  109  A    between atoms: _287  and  _290
REMARK  110  A    between atoms: _290  and  _291
REMARK  111  A    between atoms: _294  and  _296
REMARK  112  A    between atoms: _296  and  _297
REMARK  113  A    between atoms: _296  and  _299
REMARK  114  A    between atoms: _299  and  _300
REMARK  115  A    between atoms: _310  and  _312
REMARK  116  A    between atoms: _312  and  _313
REMARK  117  A    between atoms: _312  and  _315
REMARK  118  A    between atoms: _315  and  _316
REMARK  119  A    between atoms: _316  and  _317
REMARK  120  A    between atoms: _322  and  _324
REMARK  121  A    between atoms: _324  and  _325
REMARK  122  A    between atoms: _324  and  _327
REMARK  123  A    between atoms: _327  and  _328
REMARK  124  A    between atoms: _331  and  _333
REMARK  125  A    between atoms: _333  and  _334
REMARK  126  A    between atoms: _333  and  _336
REMARK  127  A    between atoms: _336  and  _337
REMARK  128  A    between atoms: _337  and  _338
REMARK  129  A    between atoms: _338  and  _339
REMARK  130  A    between atoms: _339  and  _340
REMARK  131  A    between atoms: _344  and  _346
REMARK  132  A    between atoms: _346  and  _347
REMARK  133  A    between atoms: _346  and  _349
REMARK  134  A    between atoms: _349  and  _350
REMARK  135  A    between atoms: _355  and  _356
REMARK  136  A    between atoms: _358  and  _360
REMARK  137  A    between atoms: _360  and  _361
REMARK  138  A    between atoms: _360  and  _363
REMARK  139  A    between atoms: _363  and  _364
REMARK  140  A    between atoms: _364  and  _365
REMARK  141  A    between atoms: _365  and  _366
REMARK                            x       y       z     vdW  Elec       q    Type
REMARK                         _______ _______ _______ _____ _____    ______ ____
ROOT
ATOM      1  O   HOH     1      11.236  15.883  56.370  0.00  0.00    +0.000 OA
ENDROOT
TORSDOF 0
REMARK  Name = ../refined-set-2016/1gwv/1gwv_pocket.pdb
REMARK  141 active torsions:
REMARK  status: ('A' for Active; 'I' for Inactive)
REMARK    1  A    between atoms: _1  and  _3
REMARK    2  A    between atoms: _3  and  _4
REMARK    3  A    between atoms: _3  and  _6
REMARK    4  A    between atoms: _6  and  _7
REMARK    5  A    between atoms: _17  and  _19
REMARK    6  A    between atoms: _19  and  _20
REMARK    7  A    between atoms: _19  and  _22
REMARK    8  A    between atoms: _22  and  _23
REMARK    9  A    between atoms: _23  and  _24
REMARK   10  A    between atoms: _24  and  _25
REMARK   11  A    between atoms: _34  and  _36
REMARK   12  A    between atoms: _36  and  _37
REMARK   13  A    between atoms: _36  and  _39
REMARK   14  A    between atoms: _39  and  _40
REMARK   15  A    between atoms: _40  and  _42
REMARK   16  A    between atoms: _42  and  MN_375
REMARK   17  A    between atoms: _43  and  _45
REMARK   18  A    between atoms: _45  and  _46
REMARK   19  A    between atoms: _45  and  _48
REMARK   20  A    between atoms: _48  and  _49
REMARK   21  A    between atoms: _49  and  _50
REMARK   22  A    between atoms: _50  and  MN_375
REMARK   23  A    between atoms: _52  and  _54
REMARK   24  A    between atoms: _54  and  _55
REMARK   25  A    between atoms: _54  and  _57
REMARK   26  A    between atoms: _57  and  _58
REMARK   27  A    between atoms: _58  and  _59
REMARK   28  A    between atoms: _64  and  _66
REMARK   29  A    between atoms: _66  and  _67
REMARK   30  A    between atoms: _70  and  _72
REMARK   31  A    between atoms: _72  and  _73
REMARK   32  A    between atoms: _72  and  _75
REMARK   33  A    between atoms: _75  and  _76
REMARK   34  A    between atoms: _86  and  _88
REMARK   35  A    between atoms: _88  and  _89
REMARK   36  A    between atoms: _88  and  _91
REMARK   37  A    between atoms: _91  and  _92
REMARK   38  A    between atoms: _102  and  _104
REMARK   39  A    between atoms: _104  and  _105
REMARK   40  A    between atoms: _104  and  _107
REMARK   41  A    between atoms: _107  and  _108
REMARK   42  A    between atoms: _111  and  _113
REMARK   43  A    between atoms: _113  and  _114
REMARK   44  A    between atoms: _113  and  _116
REMARK   45  A    between atoms: _116  and  _117
REMARK   46  A    between atoms: _123  and  _125
REMARK   47  A    between atoms: _125  and  _126
REMARK   48  A    between atoms: _125  and  _128
REMARK   49  A    between atoms: _128  and  _129
REMARK   50  A    between atoms: _132  and  _134
REMARK   51  A    between atoms: _134  and  _135
REMARK   52  A    between atoms: _134  and  _137
REMARK   53  A    between atoms: _137  and  _138
REMARK   54  A    between atoms: _143  and  _144
REMARK   55  A    between atoms: _146  and  _148
REMARK   56  A    between atoms: _148  and  _149
REMARK   57  A    between atoms: _148  and  _151
REMARK   58  A    between atoms: _151  and  _152
REMARK   59  A    between atoms: _157  and  _158
REMARK   60  A    between atoms: _160  and  _162
REMARK   61  A    between atoms: _162  and  _163
REMARK   62  A    between atoms: _162  and  _165
REMARK   63  A    between atoms: _165  and  _166
REMARK   64  A    between atoms: _171  and  _172
REMARK   65  A    between atoms: _174  and  _176
REMARK   66  A    between atoms: _176  and  _177
REMARK   67  A    between atoms: _176  and  _179
REMARK   68  A    between atoms: _179  and  _180
REMARK   69  A    between atoms: _185  and  _187
REMARK   70  A    between atoms: _187  and  _188
REMARK   71  A    between atoms: _191  and  _193
REMARK   72  A    between atoms: _193  and  _194
REMARK   73  A    between atoms: _197  and  _199
REMARK   74  A    between atoms: _199  and  _200
REMARK   75  A    between atoms: _199  and  _202
REMARK   76  A    between atoms: _202  and  _203
REMARK   77  A    between atoms: _203  and  _204
REMARK   78  A    between atoms: _209  and  _211
REMARK   79  A    between atoms: _211  and  _212
REMARK   80  A    between atoms: _211  and  _214
REMARK   81  A    between atoms: _214  and  _215
REMARK   82  A    between atoms: _225  and  _227
REMARK   83  A    between atoms: _227  and  _228
REMARK   84  A    between atoms: _227  and  _230
REMARK   85  A    between atoms: _230  and  _231
REMARK   86  A    between atoms: _236  and  _238
REMARK   87  A    between atoms: _238  and  _239
REMARK   88  A    between atoms: _238  and  _241
REMARK   89  A    between atoms: _241  and  _242
REMARK   90  A    between atoms: _242  and  _243
REMARK   91  A    between atoms: _246  and  _248
REMARK   92  A    between atoms: _248  and  _249
REMARK   93  A    between atoms: _248  and  _251
REMARK   94  A    between atoms: _251  and  _252
REMARK   95  A    between atoms: _254  and  _256
REMARK   96  A    between atoms: _256  and  _257
REMARK   97  A    between atoms: _256  and  _259
REMARK   98  A    between atoms: _259  and  _260
REMARK   99  A    between atoms: _265  and  _267
REMARK  100  A    between atoms: _267  and  _268
REMARK  101  A    between atoms: _267  and  _270
REMARK  102  A    between atoms: _270  and  _271
REMARK  103  A    between atoms: _274  and  _276
REMARK  104  A    between atoms: _276  and  _277
REMARK  105  A    between atoms: _276  and  _279
REMARK  106  A    between atoms: _279  and  _280
REMARK  107  A    between atoms: _285  and  _287
REMARK  108  A    between atoms: _287  and  _288
REMARK  109  A    between atoms: _287  and  _290
REMARK  110  A    between atoms: _290  and  _291
REMARK  111  A    between atoms: _294  and  _296
REMARK  112  A    between atoms: _296  and  _297
REMARK  113  A    between atoms: _296  and  _299
REMARK  114  A    between atoms: _299  and  _300
REMARK  115  A    between atoms: _310  and  _312
REMARK  116  A    between atoms: _312  and  _313
REMARK  117  A    between atoms: _312  and  _315
REMARK  118  A    between atoms: _315  and  _316
REMARK  119  A    between atoms: _316  and  _317
REMARK  120  A    between atoms: _322  and  _324
REMARK  121  A    between atoms: _324  and  _325
REMARK  122  A    between atoms: _324  and  _327
REMARK  123  A    between atoms: _327  and  _328
REMARK  124  A    between atoms: _331  and  _333
REMARK  125  A    between atoms: _333  and  _334
REMARK  126  A    between atoms: _333  and  _336
REMARK  127  A    between atoms: _336  and  _337
REMARK  128  A    between atoms: _337  and  _338
REMARK  129  A    between atoms: _338  and  _339
REMARK  130  A    between atoms: _339  and  _340
REMARK  131  A    between atoms: _344  and  _346
REMARK  132  A    between atoms: _346  and  _347
REMARK  133  A    between atoms: _346  and  _349
REMARK  134  A    between atoms: _349  and  _350
REMARK  135  A    between atoms: _355  and  _356
REMARK  136  A    between atoms: _358  and  _360
REMARK  137  A    between atoms: _360  and  _361
REMARK  138  A    between atoms: _360  and  _363
REMARK  139  A    between atoms: _363  and  _364
REMARK  140  A    between atoms: _364  and  _365
REMARK  141  A    between atoms: _365  and  _366
REMARK                            x       y       z     vdW  Elec       q    Type
REMARK                         _______ _______ _______ _____ _____    ______ ____
ROOT
ATOM      1  O   HOH     1       6.768   9.882  60.264  0.00  0.00    +0.000 OA
ENDROOT
TORSDOF 0
REMARK  Name = ../refined-set-2016/1gwv/1gwv_pocket.pdb
REMARK  141 active torsions:
REMARK  status: ('A' for Active; 'I' for Inactive)
REMARK    1  A    between atoms: _1  and  _3
REMARK    2  A    between atoms: _3  and  _4
REMARK    3  A    between atoms: _3  and  _6
REMARK    4  A    between atoms: _6  and  _7
REMARK    5  A    between atoms: _17  and  _19
REMARK    6  A    between atoms: _19  and  _20
REMARK    7  A    between atoms: _19  and  _22
REMARK    8  A    between atoms: _22  and  _23
REMARK    9  A    between atoms: _23  and  _24
REMARK   10  A    between atoms: _24  and  _25
REMARK   11  A    between atoms: _34  and  _36
REMARK   12  A    between atoms: _36  and  _37
REMARK   13  A    between atoms: _36  and  _39
REMARK   14  A    between atoms: _39  and  _40
REMARK   15  A    between atoms: _40  and  _42
REMARK   16  A    between atoms: _42  and  MN_375
REMARK   17  A    between atoms: _43  and  _45
REMARK   18  A    between atoms: _45  and  _46
REMARK   19  A    between atoms: _45  and  _48
REMARK   20  A    between atoms: _48  and  _49
REMARK   21  A    between atoms: _49  and  _50
REMARK   22  A    between atoms: _50  and  MN_375
REMARK   23  A    between atoms: _52  and  _54
REMARK   24  A    between atoms: _54  and  _55
REMARK   25  A    between atoms: _54  and  _57
REMARK   26  A    between atoms: _57  and  _58
REMARK   27  A    between atoms: _58  and  _59
REMARK   28  A    between atoms: _64  and  _66
REMARK   29  A    between atoms: _66  and  _67
REMARK   30  A    between atoms: _70  and  _72
REMARK   31  A    between atoms: _72  and  _73
REMARK   32  A    between atoms: _72  and  _75
REMARK   33  A    between atoms: _75  and  _76
REMARK   34  A    between atoms: _86  and  _88
REMARK   35  A    between atoms: _88  and  _89
REMARK   36  A    between atoms: _88  and  _91
REMARK   37  A    between atoms: _91  and  _92
REMARK   38  A    between atoms: _102  and  _104
REMARK   39  A    between atoms: _104  and  _105
REMARK   40  A    between atoms: _104  and  _107
REMARK   41  A    between atoms: _107  and  _108
REMARK   42  A    between atoms: _111  and  _113
REMARK   43  A    between atoms: _113  and  _114
REMARK   44  A    between atoms: _113  and  _116
REMARK   45  A    between atoms: _116  and  _117
REMARK   46  A    between atoms: _123  and  _125
REMARK   47  A    between atoms: _125  and  _126
REMARK   48  A    between atoms: _125  and  _128
REMARK   49  A    between atoms: _128  and  _129
REMARK   50  A    between atoms: _132  and  _134
REMARK   51  A    between atoms: _134  and  _135
REMARK   52  A    between atoms: _134  and  _137
REMARK   53  A    between atoms: _137  and  _138
REMARK   54  A    between atoms: _143  and  _144
REMARK   55  A    between atoms: _146  and  _148
REMARK   56  A    between atoms: _148  and  _149
REMARK   57  A    between atoms: _148  and  _151
REMARK   58  A    between atoms: _151  and  _152
REMARK   59  A    between atoms: _157  and  _158
REMARK   60  A    between atoms: _160  and  _162
REMARK   61  A    between atoms: _162  and  _163
REMARK   62  A    between atoms: _162  and  _165
REMARK   63  A    between atoms: _165  and  _166
REMARK   64  A    between atoms: _171  and  _172
REMARK   65  A    between atoms: _174  and  _176
REMARK   66  A    between atoms: _176  and  _177
REMARK   67  A    between atoms: _176  and  _179
REMARK   68  A    between atoms: _179  and  _180
REMARK   69  A    between atoms: _185  and  _187
REMARK   70  A    between atoms: _187  and  _188
REMARK   71  A    between atoms: _191  and  _193
REMARK   72  A    between atoms: _193  and  _194
REMARK   73  A    between atoms: _197  and  _199
REMARK   74  A    between atoms: _199  and  _200
REMARK   75  A    between atoms: _199  and  _202
REMARK   76  A    between atoms: _202  and  _203
REMARK   77  A    between atoms: _203  and  _204
REMARK   78  A    between atoms: _209  and  _211
REMARK   79  A    between atoms: _211  and  _212
REMARK   80  A    between atoms: _211  and  _214
REMARK   81  A    between atoms: _214  and  _215
REMARK   82  A    between atoms: _225  and  _227
REMARK   83  A    between atoms: _227  and  _228
REMARK   84  A    between atoms: _227  and  _230
REMARK   85  A    between atoms: _230  and  _231
REMARK   86  A    between atoms: _236  and  _238
REMARK   87  A    between atoms: _238  and  _239
REMARK   88  A    between atoms: _238  and  _241
REMARK   89  A    between atoms: _241  and  _242
REMARK   90  A    between atoms: _242  and  _243
REMARK   91  A    between atoms: _246  and  _248
REMARK   92  A    between atoms: _248  and  _249
REMARK   93  A    between atoms: _248  and  _251
REMARK   94  A    between atoms: _251  and  _252
REMARK   95  A    between atoms: _254  and  _256
REMARK   96  A    between atoms: _256  and  _257
REMARK   97  A    between atoms: _256  and  _259
REMARK   98  A    between atoms: _259  and  _260
REMARK   99  A    between atoms: _265  and  _267
REMARK  100  A    between atoms: _267  and  _268
REMARK  101  A    between atoms: _267  and  _270
REMARK  102  A    between atoms: _270  and  _271
REMARK  103  A    between atoms: _274  and  _276
REMARK  104  A    between atoms: _276  and  _277
REMARK  105  A    between atoms: _276  and  _279
REMARK  106  A    between atoms: _279  and  _280
REMARK  107  A    between atoms: _285  and  _287
REMARK  108  A    between atoms: _287  and  _288
REMARK  109  A    between atoms: _287  and  _290
REMARK  110  A    between atoms: _290  and  _291
REMARK  111  A    between atoms: _294  and  _296
REMARK  112  A    between atoms: _296  and  _297
REMARK  113  A    between atoms: _296  and  _299
REMARK  114  A    between atoms: _299  and  _300
REMARK  115  A    between atoms: _310  and  _312
REMARK  116  A    between atoms: _312  and  _313
REMARK  117  A    between atoms: _312  and  _315
REMARK  118  A    between atoms: _315  and  _316
REMARK  119  A    between atoms: _316  and  _317
REMARK  120  A    between atoms: _322  and  _324
REMARK  121  A    between atoms: _324  and  _325
REMARK  122  A    between atoms: _324  and  _327
REMARK  123  A    between atoms: _327  and  _328
REMARK  124  A    between atoms: _331  and  _333
REMARK  125  A    between atoms: _333  and  _334
REMARK  126  A    between atoms: _333  and  _336
REMARK  127  A    between atoms: _336  and  _337
REMARK  128  A    between atoms: _337  and  _338
REMARK  129  A    between atoms: _338  and  _339
REMARK  130  A    between atoms: _339  and  _340
REMARK  131  A    between atoms: _344  and  _346
REMARK  132  A    between atoms: _346  and  _347
REMARK  133  A    between atoms: _346  and  _349
REMARK  134  A    between atoms: _349  and  _350
REMARK  135  A    between atoms: _355  and  _356
REMARK  136  A    between atoms: _358  and  _360
REMARK  137  A    between atoms: _360  and  _361
REMARK  138  A    between atoms: _360  and  _363
REMARK  139  A    between atoms: _363  and  _364
REMARK  140  A    between atoms: _364  and  _365
REMARK  141  A    between atoms: _365  and  _366
REMARK                            x       y       z     vdW  Elec       q    Type
REMARK                         _______ _______ _______ _____ _____    ______ ____
ROOT
ATOM      1  O   HOH     1       5.759   7.716  50.273  0.00  0.00    +0.000 OA
ENDROOT
TORSDOF 0
REMARK  Name = ../refined-set-2016/1gwv/1gwv_pocket.pdb
REMARK  141 active torsions:
REMARK  status: ('A' for Active; 'I' for Inactive)
REMARK    1  A    between atoms: _1  and  _3
REMARK    2  A    between atoms: _3  and  _4
REMARK    3  A    between atoms: _3  and  _6
REMARK    4  A    between atoms: _6  and  _7
REMARK    5  A    between atoms: _17  and  _19
REMARK    6  A    between atoms: _19  and  _20
REMARK    7  A    between atoms: _19  and  _22
REMARK    8  A    between atoms: _22  and  _23
REMARK    9  A    between atoms: _23  and  _24
REMARK   10  A    between atoms: _24  and  _25
REMARK   11  A    between atoms: _34  and  _36
REMARK   12  A    between atoms: _36  and  _37
REMARK   13  A    between atoms: _36  and  _39
REMARK   14  A    between atoms: _39  and  _40
REMARK   15  A    between atoms: _40  and  _42
REMARK   16  A    between atoms: _42  and  MN_375
REMARK   17  A    between atoms: _43  and  _45
REMARK   18  A    between atoms: _45  and  _46
REMARK   19  A    between atoms: _45  and  _48
REMARK   20  A    between atoms: _48  and  _49
REMARK   21  A    between atoms: _49  and  _50
REMARK   22  A    between atoms: _50  and  MN_375
REMARK   23  A    between atoms: _52  and  _54
REMARK   24  A    between atoms: _54  and  _55
REMARK   25  A    between atoms: _54  and  _57
REMARK   26  A    between atoms: _57  and  _58
REMARK   27  A    between atoms: _58  and  _59
REMARK   28  A    between atoms: _64  and  _66
REMARK   29  A    between atoms: _66  and  _67
REMARK   30  A    between atoms: _70  and  _72
REMARK   31  A    between atoms: _72  and  _73
REMARK   32  A    between atoms: _72  and  _75
REMARK   33  A    between atoms: _75  and  _76
REMARK   34  A    between atoms: _86  and  _88
REMARK   35  A    between atoms: _88  and  _89
REMARK   36  A    between atoms: _88  and  _91
REMARK   37  A    between atoms: _91  and  _92
REMARK   38  A    between atoms: _102  and  _104
REMARK   39  A    between atoms: _104  and  _105
REMARK   40  A    between atoms: _104  and  _107
REMARK   41  A    between atoms: _107  and  _108
REMARK   42  A    between atoms: _111  and  _113
REMARK   43  A    between atoms: _113  and  _114
REMARK   44  A    between atoms: _113  and  _116
REMARK   45  A    between atoms: _116  and  _117
REMARK   46  A    between atoms: _123  and  _125
REMARK   47  A    between atoms: _125  and  _126
REMARK   48  A    between atoms: _125  and  _128
REMARK   49  A    between atoms: _128  and  _129
REMARK   50  A    between atoms: _132  and  _134
REMARK   51  A    between atoms: _134  and  _135
REMARK   52  A    between atoms: _134  and  _137
REMARK   53  A    between atoms: _137  and  _138
REMARK   54  A    between atoms: _143  and  _144
REMARK   55  A    between atoms: _146  and  _148
REMARK   56  A    between atoms: _148  and  _149
REMARK   57  A    between atoms: _148  and  _151
REMARK   58  A    between atoms: _151  and  _152
REMARK   59  A    between atoms: _157  and  _158
REMARK   60  A    between atoms: _160  and  _162
REMARK   61  A    between atoms: _162  and  _163
REMARK   62  A    between atoms: _162  and  _165
REMARK   63  A    between atoms: _165  and  _166
REMARK   64  A    between atoms: _171  and  _172
REMARK   65  A    between atoms: _174  and  _176
REMARK   66  A    between atoms: _176  and  _177
REMARK   67  A    between atoms: _176  and  _179
REMARK   68  A    between atoms: _179  and  _180
REMARK   69  A    between atoms: _185  and  _187
REMARK   70  A    between atoms: _187  and  _188
REMARK   71  A    between atoms: _191  and  _193
REMARK   72  A    between atoms: _193  and  _194
REMARK   73  A    between atoms: _197  and  _199
REMARK   74  A    between atoms: _199  and  _200
REMARK   75  A    between atoms: _199  and  _202
REMARK   76  A    between atoms: _202  and  _203
REMARK   77  A    between atoms: _203  and  _204
REMARK   78  A    between atoms: _209  and  _211
REMARK   79  A    between atoms: _211  and  _212
REMARK   80  A    between atoms: _211  and  _214
REMARK   81  A    between atoms: _214  and  _215
REMARK   82  A    between atoms: _225  and  _227
REMARK   83  A    between atoms: _227  and  _228
REMARK   84  A    between atoms: _227  and  _230
REMARK   85  A    between atoms: _230  and  _231
REMARK   86  A    between atoms: _236  and  _238
REMARK   87  A    between atoms: _238  and  _239
REMARK   88  A    between atoms: _238  and  _241
REMARK   89  A    between atoms: _241  and  _242
REMARK   90  A    between atoms: _242  and  _243
REMARK   91  A    between atoms: _246  and  _248
REMARK   92  A    between atoms: _248  and  _249
REMARK   93  A    between atoms: _248  and  _251
REMARK   94  A    between atoms: _251  and  _252
REMARK   95  A    between atoms: _254  and  _256
REMARK   96  A    between atoms: _256  and  _257
REMARK   97  A    between atoms: _256  and  _259
REMARK   98  A    between atoms: _259  and  _260
REMARK   99  A    between atoms: _265  and  _267
REMARK  100  A    between atoms: _267  and  _268
REMARK  101  A    between atoms: _267  and  _270
REMARK  102  A    between atoms: _270  and  _271
REMARK  103  A    between atoms: _274  and  _276
REMARK  104  A    between atoms: _276  and  _277
REMARK  105  A    between atoms: _276  and  _279
REMARK  106  A    between atoms: _279  and  _280
REMARK  107  A    between atoms: _285  and  _287
REMARK  108  A    between atoms: _287  and  _288
REMARK  109  A    between atoms: _287  and  _290
REMARK  110  A    between atoms: _290  and  _291
REMARK  111  A    between atoms: _294  and  _296
REMARK  112  A    between atoms: _296  and  _297
REMARK  113  A    between atoms: _296  and  _299
REMARK  114  A    between atoms: _299  and  _300
REMARK  115  A    between atoms: _310  and  _312
REMARK  116  A    between atoms: _312  and  _313
REMARK  117  A    between atoms: _312  and  _315
REMARK  118  A    between atoms: _315  and  _316
REMARK  119  A    between atoms: _316  and  _317
REMARK  120  A    between atoms: _322  and  _324
REMARK  121  A    between atoms: _324  and  _325
REMARK  122  A    between atoms: _324  and  _327
REMARK  123  A    between atoms: _327  and  _328
REMARK  124  A    between atoms: _331  and  _333
REMARK  125  A    between atoms: _333  and  _334
REMARK  126  A    between atoms: _333  and  _336
REMARK  127  A    between atoms: _336  and  _337
REMARK  128  A    between atoms: _337  and  _338
REMARK  129  A    between atoms: _338  and  _339
REMARK  130  A    between atoms: _339  and  _340
REMARK  131  A    between atoms: _344  and  _346
REMARK  132  A    between atoms: _346  and  _347
REMARK  133  A    between atoms: _346  and  _349
REMARK  134  A    between atoms: _349  and  _350
REMARK  135  A    between atoms: _355  and  _356
REMARK  136  A    between atoms: _358  and  _360
REMARK  137  A    between atoms: _360  and  _361
REMARK  138  A    between atoms: _360  and  _363
REMARK  139  A    between atoms: _363  and  _364
REMARK  140  A    between atoms: _364  and  _365
REMARK  141  A    between atoms: _365  and  _366
REMARK                            x       y       z     vdW  Elec       q    Type
REMARK                         _______ _______ _______ _____ _____    ______ ____
ROOT
ATOM      1  O   HOH     1      14.428  12.381  54.822  0.00  0.00    +0.000 OA
ENDROOT
TORSDOF 0
