REMARK  Name = ../refined-set-2016/4kiu/4kiu_pocket.pdb
REMARK  204 active torsions:
REMARK  status: ('A' for Active; 'I' for Inactive)
REMARK    1  A    between atoms: _1  and  _3
REMARK    2  A    between atoms: _3  and  _4
REMARK    3  A    between atoms: _3  and  _6
REMARK    4  A    between atoms: _6  and  _7
REMARK    5  A    between atoms: _12  and  _14
REMARK    6  A    between atoms: _14  and  _15
REMARK    7  A    between atoms: _18  and  _19
REMARK    8  A    between atoms: _24  and  _26
REMARK    9  A    between atoms: _26  and  _27
REMARK   10  A    between atoms: _26  and  _29
REMARK   11  A    between atoms: _29  and  _30
REMARK   12  A    between atoms: _35  and  _37
REMARK   13  A    between atoms: _37  and  _38
REMARK   14  A    between atoms: _37  and  _40
REMARK   15  A    between atoms: _40  and  _41
REMARK   16  A    between atoms: _44  and  _46
REMARK   17  A    between atoms: _46  and  _47
REMARK   18  A    between atoms: _49  and  _51
REMARK   19  A    between atoms: _51  and  _52
REMARK   20  A    between atoms: _51  and  _54
REMARK   21  A    between atoms: _54  and  _55
REMARK   22  A    between atoms: _55  and  _56
REMARK   23  A    between atoms: _56  and  _57
REMARK   24  A    between atoms: _66  and  _68
REMARK   25  A    between atoms: _68  and  _69
REMARK   26  A    between atoms: _68  and  _71
REMARK   27  A    between atoms: _71  and  _72
REMARK   28  A    between atoms: _75  and  _77
REMARK   29  A    between atoms: _77  and  _78
REMARK   30  A    between atoms: _82  and  _83
REMARK   31  A    between atoms: _82  and  _85
REMARK   32  A    between atoms: _85  and  _86
REMARK   33  A    between atoms: _86  and  _87
REMARK   34  A    between atoms: _87  and  _88
REMARK   35  A    between atoms: _97  and  _99
REMARK   36  A    between atoms: _99  and  _100
REMARK   37  A    between atoms: _99  and  _102
REMARK   38  A    between atoms: _102  and  _103
REMARK   39  A    between atoms: _103  and  _104
REMARK   40  A    between atoms: _104  and  _105
REMARK   41  A    between atoms: _114  and  _116
REMARK   42  A    between atoms: _116  and  _117
REMARK   43  A    between atoms: _116  and  _119
REMARK   44  A    between atoms: _119  and  _120
REMARK   45  A    between atoms: _120  and  _121
REMARK   46  A    between atoms: _125  and  _126
REMARK   47  A    between atoms: _131  and  _133
REMARK   48  A    between atoms: _133  and  _134
REMARK   49  A    between atoms: _137  and  _139
REMARK   50  A    between atoms: _139  and  _140
REMARK   51  A    between atoms: _139  and  _142
REMARK   52  A    between atoms: _145  and  _147
REMARK   53  A    between atoms: _147  and  _148
REMARK   54  A    between atoms: _147  and  _150
REMARK   55  A    between atoms: _150  and  _151
REMARK   56  A    between atoms: _156  and  _157
REMARK   57  A    between atoms: _159  and  _161
REMARK   58  A    between atoms: _161  and  _162
REMARK   59  A    between atoms: _164  and  _166
REMARK   60  A    between atoms: _166  and  _167
REMARK   61  A    between atoms: _166  and  _169
REMARK   62  A    between atoms: _169  and  _170
REMARK   63  A    between atoms: _173  and  _175
REMARK   64  A    between atoms: _175  and  _176
REMARK   65  A    between atoms: _175  and  _178
REMARK   66  A    between atoms: _178  and  _179
REMARK   67  A    between atoms: _184  and  _186
REMARK   68  A    between atoms: _186  and  _187
REMARK   69  A    between atoms: _186  and  _189
REMARK   70  A    between atoms: _189  and  _190
REMARK   71  A    between atoms: _190  and  _191
REMARK   72  A    between atoms: _196  and  _198
REMARK   73  A    between atoms: _198  and  _199
REMARK   74  A    between atoms: _198  and  _201
REMARK   75  A    between atoms: _201  and  _202
REMARK   76  A    between atoms: _205  and  _207
REMARK   77  A    between atoms: _207  and  _208
REMARK   78  A    between atoms: _207  and  _210
REMARK   79  A    between atoms: _210  and  _211
REMARK   80  A    between atoms: _216  and  _218
REMARK   81  A    between atoms: _218  and  _219
REMARK   82  A    between atoms: _222  and  _224
REMARK   83  A    between atoms: _224  and  _225
REMARK   84  A    between atoms: _227  and  _229
REMARK   85  A    between atoms: _229  and  _230
REMARK   86  A    between atoms: _232  and  _234
REMARK   87  A    between atoms: _234  and  _235
REMARK   88  A    between atoms: _234  and  _237
REMARK   89  A    between atoms: _237  and  _238
REMARK   90  A    between atoms: _241  and  _243
REMARK   91  A    between atoms: _243  and  _244
REMARK   92  A    between atoms: _243  and  _246
REMARK   93  A    between atoms: _246  and  _247
REMARK   94  A    between atoms: _250  and  _252
REMARK   95  A    between atoms: _252  and  _253
REMARK   96  A    between atoms: _252  and  _255
REMARK   97  A    between atoms: _255  and  _256
REMARK   98  A    between atoms: _261  and  _263
REMARK   99  A    between atoms: _263  and  _264
REMARK  100  A    between atoms: _263  and  _266
REMARK  101  A    between atoms: _269  and  _271
REMARK  102  A    between atoms: _271  and  _272
REMARK  103  A    between atoms: _271  and  _274
REMARK  104  A    between atoms: _274  and  _275
REMARK  105  A    between atoms: _280  and  _282
REMARK  106  A    between atoms: _282  and  _283
REMARK  107  A    between atoms: _282  and  _285
REMARK  108  A    between atoms: _285  and  _286
REMARK  109  A    between atoms: _289  and  _291
REMARK  110  A    between atoms: _291  and  _292
REMARK  111  A    between atoms: _291  and  _294
REMARK  112  A    between atoms: _294  and  _295
REMARK  113  A    between atoms: _297  and  _299
REMARK  114  A    between atoms: _299  and  _300
REMARK  115  A    between atoms: _299  and  _302
REMARK  116  A    between atoms: _302  and  _303
REMARK  117  A    between atoms: _308  and  _310
REMARK  118  A    between atoms: _310  and  _311
REMARK  119  A    between atoms: _310  and  _313
REMARK  120  A    between atoms: _316  and  _318
REMARK  121  A    between atoms: _318  and  _319
REMARK  122  A    between atoms: _318  and  _321
REMARK  123  A    between atoms: _321  and  _322
REMARK  124  A    between atoms: _327  and  _329
REMARK  125  A    between atoms: _329  and  _330
REMARK  126  A    between atoms: _333  and  _335
REMARK  127  A    between atoms: _335  and  _336
REMARK  128  A    between atoms: _335  and  _338
REMARK  129  A    between atoms: _338  and  _339
REMARK  130  A    between atoms: _339  and  _340
REMARK  131  A    between atoms: _340  and  _341
REMARK  132  A    between atoms: _350  and  _352
REMARK  133  A    between atoms: _352  and  _353
REMARK  134  A    between atoms: _352  and  _355
REMARK  135  A    between atoms: _355  and  _356
REMARK  136  A    between atoms: _356  and  _357
REMARK  137  A    between atoms: _360  and  _362
REMARK  138  A    between atoms: _362  and  _363
REMARK  139  A    between atoms: _362  and  _365
REMARK  140  A    between atoms: _365  and  _366
REMARK  141  A    between atoms: _372  and  _374
REMARK  142  A    between atoms: _374  and  _375
REMARK  143  A    between atoms: _374  and  _377
REMARK  144  A    between atoms: _377  and  _378
REMARK  145  A    between atoms: _378  and  _379
REMARK  146  A    between atoms: _379  and  _380
REMARK  147  A    between atoms: _389  and  _391
REMARK  148  A    between atoms: _391  and  _392
REMARK  149  A    between atoms: _391  and  _394
REMARK  150  A    between atoms: _394  and  _395
REMARK  151  A    between atoms: _395  and  _396
REMARK  152  A    between atoms: _396  and  _397
REMARK  153  A    between atoms: _406  and  _408
REMARK  154  A    between atoms: _408  and  _409
REMARK  155  A    between atoms: _408  and  _411
REMARK  156  A    between atoms: _411  and  _412
REMARK  157  A    between atoms: _417  and  _419
REMARK  158  A    between atoms: _419  and  _420
REMARK  159  A    between atoms: _419  and  _422
REMARK  160  A    between atoms: _422  and  _423
REMARK  161  A    between atoms: _426  and  _428
REMARK  162  A    between atoms: _428  and  _429
REMARK  163  A    between atoms: _428  and  _431
REMARK  164  A    between atoms: _434  and  _436
REMARK  165  A    between atoms: _436  and  _437
REMARK  166  A    between atoms: _439  and  _441
REMARK  167  A    between atoms: _441  and  _442
REMARK  168  A    between atoms: _441  and  _444
REMARK  169  A    between atoms: _444  and  _445
REMARK  170  A    between atoms: _448  and  _450
REMARK  171  A    between atoms: _450  and  _451
REMARK  172  A    between atoms: _453  and  _455
REMARK  173  A    between atoms: _455  and  _456
REMARK  174  A    between atoms: _455  and  _458
REMARK  175  A    between atoms: _458  and  _459
REMARK  176  A    between atoms: _464  and  _465
REMARK  177  A    between atoms: _467  and  _469
REMARK  178  A    between atoms: _469  and  _470
REMARK  179  A    between atoms: _469  and  _472
REMARK  180  A    between atoms: _472  and  _473
REMARK  181  A    between atoms: _478  and  _480
REMARK  182  A    between atoms: _480  and  _481
REMARK  183  A    between atoms: _480  and  _483
REMARK  184  A    between atoms: _486  and  _488
REMARK  185  A    between atoms: _488  and  _489
REMARK  186  A    between atoms: _492  and  _494
REMARK  187  A    between atoms: _494  and  _495
REMARK  188  A    between atoms: _494  and  _497
REMARK  189  A    between atoms: _497  and  _498
REMARK  190  A    between atoms: _498  and  _499
REMARK  191  A    between atoms: _499  and  _500
REMARK  192  A    between atoms: _509  and  _511
REMARK  193  A    between atoms: _511  and  _512
REMARK  194  A    between atoms: _511  and  _514
REMARK  195  A    between atoms: _514  and  _515
REMARK  196  A    between atoms: _518  and  _520
REMARK  197  A    between atoms: _520  and  _521
REMARK  198  A    between atoms: _524  and  _526
REMARK  199  A    between atoms: _526  and  _527
REMARK  200  A    between atoms: _530  and  _532
REMARK  201  A    between atoms: _532  and  _533
REMARK  202  A    between atoms: _532  and  _535
REMARK  203  A    between atoms: _535  and  _536
REMARK  204  A    between atoms: _536  and  _537
REMARK                            x       y       z     vdW  Elec       q    Type
REMARK                         _______ _______ _______ _____ _____    ______ ____
ROOT
ATOM      1  C   GLY A   9     -13.919  32.959  88.135  0.00  0.00    +0.246 C 
ATOM      2  O   GLY A   9     -14.516  32.561  89.136  0.00  0.00    -0.273 OA
ATOM      3  N   ARG A  10     -14.361  33.978  87.409  0.00  0.00    -0.282 N 
ATOM      4  CA  ARG A  10     -15.585  34.664  87.844  0.00  0.00    +0.081 C 
ATOM      5  H   ARG A  10     -13.854  34.283  86.554  0.00  0.00    +0.155 HD
ENDROOT
BRANCH   4   6
ATOM      6  C   ARG A  10     -16.948  34.174  87.235  0.00  0.00    +0.256 C 
ATOM      7  O   ARG A  10     -17.818  33.737  88.009  0.00  0.00    -0.269 OA
ATOM      8  N   ARG A  11     -17.190  34.220  85.915  0.00  0.00    -0.294 N 
ATOM      9  H   ARG A  11     -18.029  33.696  85.594  0.00  0.00    +0.150 HD
BRANCH   8  10
ATOM     10  CA  ARG A  11     -16.427  34.913  84.855  0.00  0.00    +0.149 C 
BRANCH  10  11
ATOM     11  C   ARG A  11     -15.115  34.203  84.428  0.00  0.00    +0.241 C 
ATOM     12  O   ARG A  11     -14.138  34.178  85.174  0.00  0.00    -0.273 OA
ATOM     13  N   GLU A  12     -15.142  33.632  83.217  0.00  0.00    -0.297 N 
ATOM     14  H   GLU A  12     -15.994  33.789  82.641  0.00  0.00    +0.150 HD
BRANCH  13  15
ATOM     15  CA  GLU A  12     -14.066  32.792  82.616  0.00  0.00    +0.149 C 
BRANCH  15  16
ATOM     16  C   GLU A  12     -13.625  31.553  83.448  0.00  0.00    +0.244 C 
ATOM     17  O   GLU A  12     -12.463  31.490  83.881  0.00  0.00    -0.273 OA
ATOM     18  N   PRO A  13     -14.545  30.577  83.692  0.00  0.00    -0.272 N 
ATOM     19  CA  PRO A  13     -14.095  29.308  84.281  0.00  0.00    +0.152 C 
ATOM     20  CB  PRO A  13     -14.725  29.393  85.685  0.00  0.00    +0.031 C 
ATOM     21  CG  PRO A  13     -16.002  30.202  85.485  0.00  0.00    +0.024 C 
ATOM     22  CD  PRO A  13     -15.943  30.829  84.100  0.00  0.00    +0.094 C 
BRANCH  19  23
ATOM     23  C   PRO A  13     -14.635  28.021  83.605  0.00  0.00    +0.241 C 
ATOM     24  O   PRO A  13     -15.362  27.294  84.277  0.00  0.00    -0.273 OA
ATOM     25  N   ALA A  14     -14.275  27.645  82.370  0.00  0.00    -0.297 N 
ATOM     26  H   ALA A  14     -14.962  27.045  81.870  0.00  0.00    +0.150 HD
BRANCH  25  27
ATOM     27  CA  ALA A  14     -13.047  27.957  81.616  0.00  0.00    +0.149 C 
ATOM     28  CB  ALA A  14     -12.812  29.454  81.424  0.00  0.00    +0.031 C 
BRANCH  27  29
ATOM     29  C   ALA A  14     -11.799  27.203  82.138  0.00  0.00    +0.241 C 
ATOM     30  O   ALA A  14     -11.891  26.399  83.086  0.00  0.00    -0.273 OA
ATOM     31  N   VAL A  15     -10.657  27.457  81.492  0.00  0.00    -0.297 N 
ATOM     32  H   VAL A  15     -10.652  28.234  80.801  0.00  0.00    +0.150 HD
BRANCH  31  33
ATOM     33  CA  VAL A  15      -9.403  26.706  81.696  0.00  0.00    +0.149 C 
BRANCH  33  34
ATOM     34  C   VAL A  15      -8.481  27.342  82.763  0.00  0.00    +0.241 C 
ATOM     35  N   TYR A  16      -9.054  28.171  83.635  0.00  0.00    -0.297 N 
ATOM     36  H   TYR A  16     -10.091  28.245  83.649  0.00  0.00    +0.150 HD
ATOM     37  O   VAL A  15      -7.277  27.073  82.797  0.00  0.00    -0.273 OA
BRANCH  35  38
ATOM     38  CA  TYR A  16      -8.273  28.985  84.579  0.00  0.00    +0.153 C 
BRANCH  38  39
ATOM     39  C   TYR A  16      -8.543  28.658  86.046  0.00  0.00    +0.241 C 
ATOM     40  O   TYR A  16      -7.849  29.172  86.939  0.00  0.00    -0.273 OA
ATOM     41  N   GLY A  17      -9.542  27.797  86.276  0.00  0.00    -0.296 N 
ATOM     42  H   GLY A  17     -10.065  27.424  85.458  0.00  0.00    +0.150 HD
BRANCH  41  43
ATOM     43  CA  GLY A  17      -9.943  27.348  87.620  0.00  0.00    +0.163 C 
BRANCH  43  44
ATOM     44  C   GLY A  17     -11.240  27.969  88.129  0.00  0.00    +0.229 C 
ATOM     45  O   GLY A  17     -12.047  28.487  87.342  0.00  0.00    -0.286 OA
ENDBRANCH  43  44
ENDBRANCH  41  43
ENDBRANCH  38  39
BRANCH  38  46
ATOM     46  CB  TYR A  16      -8.496  30.480  84.308  0.00  0.00    +0.055 C 
BRANCH  46  47
ATOM     47  CG  TYR A  16      -8.019  30.925  82.935  0.00  0.00    -0.020 A 
ATOM     48  CD2 TYR A  16      -6.665  31.254  82.708  0.00  0.00    -0.001 A 
ATOM     49  CE2 TYR A  16      -6.219  31.659  81.451  0.00  0.00    +0.036 A 
ATOM     50  CZ  TYR A  16      -7.132  31.732  80.411  0.00  0.00    +0.134 A 
ATOM     51  CE1 TYR A  16      -8.473  31.415  80.603  0.00  0.00    +0.036 A 
ATOM     52  CD1 TYR A  16      -8.908  31.015  81.858  0.00  0.00    -0.001 A 
BRANCH  50  53
ATOM     53  OH  TYR A  16      -6.708  32.126  79.176  0.00  0.00    -0.506 OA
ATOM     54  HH  TYR A  16      -6.328  33.038  79.234  0.00  0.00    +0.292 HD
ENDBRANCH  50  53
ENDBRANCH  46  47
ENDBRANCH  38  46
ENDBRANCH  35  38
ENDBRANCH  33  34
BRANCH  33  55
ATOM     55  CB  VAL A  15      -8.610  26.572  80.362  0.00  0.00    +0.027 C 
ATOM     56  CG2 VAL A  15      -7.772  25.298  80.348  0.00  0.00    +0.002 C 
ATOM     57  CG1 VAL A  15      -9.534  26.619  79.153  0.00  0.00    +0.002 C 
ENDBRANCH  33  55
ENDBRANCH  31  33
ENDBRANCH  27  29
ENDBRANCH  25  27
ENDBRANCH  19  23
ENDBRANCH  15  16
BRANCH  15  58
ATOM     58  CB  GLU A  12     -12.837  33.639  82.193  0.00  0.00    +0.041 C 
BRANCH  58  59
ATOM     59  CG  GLU A  12     -13.030  34.598  81.012  0.00  0.00    +0.116 C 
BRANCH  59  60
ATOM     60  CD  GLU A  12     -12.475  34.092  79.670  0.00  0.00    +0.365 C 
ATOM     61  OE2 GLU A  12     -12.617  32.880  79.355  0.00  0.00    -0.246 OA
ATOM     62  OE1 GLU A  12     -11.905  34.923  78.909  0.00  0.00    -0.246 OA
ENDBRANCH  59  60
ENDBRANCH  58  59
ENDBRANCH  15  58
ENDBRANCH  13  15
ENDBRANCH  10  11
BRANCH  10  63
ATOM     63  CB  ARG A  11     -16.277  36.436  85.141  0.00  0.00    +0.033 C 
BRANCH  63  64
ATOM     64  CG  ARG A  11     -17.522  37.170  85.708  0.00  0.00    +0.045 C 
BRANCH  64  65
ATOM     65  CD  ARG A  11     -18.835  36.882  84.957  0.00  0.00    +0.174 C 
BRANCH  65  66
ATOM     66  NE  ARG A  11     -20.072  37.557  85.423  0.00  0.00    -0.265 N 
ATOM     67  CZ  ARG A  11     -20.373  37.941  86.669  0.00  0.00    +0.342 C 
ATOM     68  NH2 ARG A  11     -19.540  37.741  87.687  0.00  0.00    -0.292 N 
ATOM     69 HH21 ARG A  11     -19.804  38.052  88.644  0.00  0.00    +0.255 HD
ATOM     70 HH22 ARG A  11     -18.625  37.274  87.526  0.00  0.00    +0.255 HD
ATOM     71  NH1 ARG A  11     -21.539  38.537  86.895  0.00  0.00    -0.292 N 
ATOM     72 HH11 ARG A  11     -21.789  38.842  87.857  0.00  0.00    +0.255 HD
ATOM     73 HH12 ARG A  11     -22.201  38.698  86.110  0.00  0.00    +0.255 HD
ATOM     74  HE  ARG A  11     -20.789  37.755  84.696  0.00  0.00    +0.259 HD
ENDBRANCH  65  66
ENDBRANCH  64  65
ENDBRANCH  63  64
ENDBRANCH  10  63
ENDBRANCH   8  10
ENDBRANCH   4   6
BRANCH   1  75
ATOM     75  CA  GLY A   9     -12.651  32.264  87.687  0.00  0.00    +0.176 C 
BRANCH  75  78
ATOM     76  C   LEU A   8     -11.260  34.320  87.759  0.00  0.00    +0.241 C 
ATOM     77  O   LEU A   8     -12.049  34.967  88.459  0.00  0.00    -0.273 OA
ATOM     78  N   GLY A   9     -11.439  33.046  87.414  0.00  0.00    -0.295 N 
ATOM     79  H   GLY A   9     -10.662  32.569  86.914  0.00  0.00    +0.150 HD
BRANCH  76  80
ATOM     80  CA  LEU A   8      -9.965  34.940  87.236  0.00  0.00    +0.149 C 
BRANCH  80  82
ATOM     81  C   ARG A   7     -11.131  36.777  86.159  0.00  0.00    +0.241 C 
ATOM     82  N   LEU A   8     -10.102  36.348  86.890  0.00  0.00    -0.297 N 
ATOM     83  H   LEU A   8      -9.387  37.028  87.218  0.00  0.00    +0.150 HD
ATOM     84  O   ARG A   7     -11.940  35.991  85.638  0.00  0.00    -0.273 OA
BRANCH  81  85
ATOM     85  CA  ARG A   7     -11.289  38.309  85.977  0.00  0.00    +0.149 C 
BRANCH  85  88
ATOM     86  C   GLY A   6      -9.856  39.834  87.217  0.00  0.00    +0.243 C 
ATOM     87  O   GLY A   6     -10.655  39.931  88.152  0.00  0.00    -0.273 OA
ATOM     88  N   ARG A   7     -10.069  39.070  86.167  0.00  0.00    -0.297 N 
ATOM     89  H   ARG A   7      -9.328  39.009  85.440  0.00  0.00    +0.150 HD
BRANCH  86  90
ATOM     90  CA  GLY A   6      -8.536  40.570  87.220  0.00  0.00    +0.176 C 
BRANCH  90  93
ATOM     91  C   LEU A   5      -7.141  38.878  86.139  0.00  0.00    +0.241 C 
ATOM     92  O   LEU A   5      -7.402  38.048  86.999  0.00  0.00    -0.273 OA
ATOM     93  N   GLY A   6      -7.657  40.114  86.150  0.00  0.00    -0.295 N 
ATOM     94  H   GLY A   6      -7.424  40.766  85.374  0.00  0.00    +0.150 HD
BRANCH  91  95
ATOM     95  CA  LEU A   5      -6.241  38.489  84.971  0.00  0.00    +0.149 C 
BRANCH  95  97
ATOM     96  C   ASN A   4      -7.517  39.138  83.050  0.00  0.00    +0.241 C 
ATOM     97  N   LEU A   5      -6.418  39.298  83.777  0.00  0.00    -0.297 N 
ATOM     98  H   LEU A   5      -5.695  39.991  83.497  0.00  0.00    +0.150 HD
ATOM     99  O   ASN A   4      -8.412  38.347  83.367  0.00  0.00    -0.273 OA
BRANCH  96 100
ATOM    100  CA  ASN A   4      -7.673  40.039  81.850  0.00  0.00    +0.158 C 
BRANCH 100 102
ATOM    101  C   PRO A   3      -5.443  40.993  81.338  0.00  0.00    +0.241 C 
ATOM    102  N   ASN A   4      -6.700  41.124  81.785  0.00  0.00    -0.297 N 
ATOM    103  H   ASN A   4      -7.003  42.065  82.108  0.00  0.00    +0.150 HD
ATOM    104  O   PRO A   3      -4.940  39.941  80.964  0.00  0.00    -0.273 OA
BRANCH 101 108
ATOM    105  C   GLY A   2      -2.897  41.567  82.869  0.00  0.00    +0.246 C 
ATOM    106  O   GLY A   2      -3.679  41.033  83.606  0.00  0.00    -0.273 OA
ATOM    107  N   PRO A   3      -3.253  42.077  81.684  0.00  0.00    -0.272 N 
ATOM    108  CA  PRO A   3      -4.635  42.261  81.289  0.00  0.00    +0.152 C 
ATOM    109  CB  PRO A   3      -4.526  42.748  79.843  0.00  0.00    +0.031 C 
ATOM    110  CG  PRO A   3      -3.228  43.453  79.789  0.00  0.00    +0.024 C 
ATOM    111  CD  PRO A   3      -2.315  42.711  80.732  0.00  0.00    +0.094 C 
BRANCH 105 112
ATOM    112  CA  GLY A   2      -1.446  41.652  83.262  0.00  0.00    +0.176 C 
BRANCH 112 115
ATOM    113  C   ASN A   1      -1.027  41.160  85.592  0.00  0.00    +0.239 C 
ATOM    114  O   ASN A   1      -1.195  42.319  85.929  0.00  0.00    -0.274 OA
ATOM    115  N   GLY A   2      -1.193  40.743  84.348  0.00  0.00    -0.296 N 
ATOM    116  H   GLY A   2      -1.139  39.724  84.148  0.00  0.00    +0.150 HD
BRANCH 113 117
ATOM    117  CA  ASN A   1      -0.607  40.138  86.610  0.00  0.00    +0.154 C 
BRANCH 117 118
ATOM    118  N   ASN A   1       0.314  40.712  87.593  0.00  0.00    -0.238 NA
ATOM    119  H   ASN A   1      -0.079  41.312  88.346  0.00  0.00    +0.142 HD
ENDBRANCH 117 118
BRANCH 117 120
ATOM    120  CB  ASN A   1      -1.828  39.582  87.312  0.00  0.00    +0.111 C 
BRANCH 120 121
ATOM    121  CG  ASN A   1      -1.541  38.265  88.002  0.00  0.00    +0.221 C 
ATOM    122  ND2 ASN A   1      -2.110  38.072  89.198  0.00  0.00    -0.329 N 
ATOM    123 HD21 ASN A   1      -1.945  37.185  89.715  0.00  0.00    +0.145 HD
ATOM    124 HD22 ASN A   1      -2.717  38.809  89.610  0.00  0.00    +0.145 HD
ATOM    125  OD1 ASN A   1      -0.810  37.421  87.467  0.00  0.00    -0.275 OA
ENDBRANCH 120 121
ENDBRANCH 117 120
ENDBRANCH 113 117
ENDBRANCH 112 115
ENDBRANCH 105 112
ENDBRANCH 101 108
ENDBRANCH 100 102
BRANCH 100 126
ATOM    126  CB  ASN A   4      -7.742  39.256  80.539  0.00  0.00    +0.114 C 
BRANCH 126 127
ATOM    127  CG  ASN A   4      -8.238  40.122  79.389  0.00  0.00    +0.222 C 
ATOM    128  OD1 ASN A   4      -9.245  40.856  79.519  0.00  0.00    -0.275 OA
ATOM    129  ND2 ASN A   4      -7.506  40.092  78.277  0.00  0.00    -0.329 N 
ATOM    130 HD21 ASN A   4      -6.678  39.466  78.216  0.00  0.00    +0.145 HD
ATOM    131 HD22 ASN A   4      -7.762  40.695  77.469  0.00  0.00    +0.145 HD
ENDBRANCH 126 127
ENDBRANCH 100 126
ENDBRANCH  96 100
ENDBRANCH  95  97
BRANCH  95 132
ATOM    132  CB  LEU A   5      -4.780  38.421  85.342  0.00  0.00    +0.029 C 
BRANCH 132 133
ATOM    133  CG  LEU A   5      -4.186  37.418  84.334  0.00  0.00    +0.002 C 
ATOM    134  CD2 LEU A   5      -4.149  36.021  84.922  0.00  0.00    +0.000 C 
ATOM    135  CD1 LEU A   5      -2.807  37.778  83.790  0.00  0.00    +0.000 C 
ENDBRANCH 132 133
ENDBRANCH  95 132
ENDBRANCH  91  95
ENDBRANCH  90  93
ENDBRANCH  86  90
ENDBRANCH  85  88
BRANCH  85 136
ATOM    136  CB  ARG A   7     -11.838  38.631  84.589  0.00  0.00    +0.033 C 
BRANCH 136 137
ATOM    137  CG  ARG A   7     -11.988  40.130  84.410  0.00  0.00    +0.045 C 
BRANCH 137 138
ATOM    138  CD  ARG A   7     -12.812  40.459  83.209  0.00  0.00    +0.174 C 
BRANCH 138 139
ATOM    139  NE  ARG A   7     -14.133  39.845  83.184  0.00  0.00    -0.265 N 
ATOM    140  CZ  ARG A   7     -15.182  40.292  83.861  0.00  0.00    +0.342 C 
ATOM    141  NH2 ARG A   7     -15.046  41.340  84.657  0.00  0.00    -0.292 N 
ATOM    142 HH21 ARG A   7     -15.864  41.697  85.191  0.00  0.00    +0.255 HD
ATOM    143 HH22 ARG A   7     -14.121  41.807  84.748  0.00  0.00    +0.255 HD
ATOM    144  NH1 ARG A   7     -16.359  39.669  83.752  0.00  0.00    -0.292 N 
ATOM    145 HH11 ARG A   7     -17.183  40.018  84.282  0.00  0.00    +0.255 HD
ATOM    146 HH12 ARG A   7     -16.451  38.835  83.137  0.00  0.00    +0.255 HD
ATOM    147  HE  ARG A   7     -14.262  38.998  82.595  0.00  0.00    +0.259 HD
ENDBRANCH 138 139
ENDBRANCH 137 138
ENDBRANCH 136 137
ENDBRANCH  85 136
ENDBRANCH  81  85
ENDBRANCH  80  82
BRANCH  80 148
ATOM    148  CB  LEU A   8      -8.869  34.743  88.272  0.00  0.00    +0.029 C 
BRANCH 148 149
ATOM    149  CG  LEU A   8      -7.501  34.411  87.740  0.00  0.00    +0.002 C 
ATOM    150  CD2 LEU A   8      -6.686  34.045  88.943  0.00  0.00    +0.000 C 
ATOM    151  CD1 LEU A   8      -7.536  33.266  86.733  0.00  0.00    +0.000 C 
ENDBRANCH 148 149
ENDBRANCH  80 148
ENDBRANCH  76  80
ENDBRANCH  75  78
ENDBRANCH   1  75
BRANCH   4 152
ATOM    152  CB  ARG A  10     -15.402  36.200  87.929  0.00  0.00    +0.049 C 
BRANCH 152 153
ATOM    153  CG  ARG A  10     -15.327  36.720  89.364  0.00  0.00    +0.049 C 
BRANCH 153 154
ATOM    154  CD  ARG A  10     -14.875  38.172  89.476  0.00  0.00    +0.174 C 
BRANCH 154 155
ATOM    155  NE  ARG A  10     -15.499  39.060  88.491  0.00  0.00    -0.265 N 
ATOM    156  CZ  ARG A  10     -16.701  39.627  88.613  0.00  0.00    +0.342 C 
ATOM    157  NH2 ARG A  10     -17.461  39.407  89.683  0.00  0.00    -0.292 N 
ATOM    158 HH21 ARG A  10     -17.121  38.784  90.443  0.00  0.00    +0.255 HD
ATOM    159 HH22 ARG A  10     -18.395  39.858  89.759  0.00  0.00    +0.255 HD
ATOM    160  NH1 ARG A  10     -17.149  40.418  87.649  0.00  0.00    -0.292 N 
ATOM    161 HH11 ARG A  10     -18.084  40.864  87.735  0.00  0.00    +0.255 HD
ATOM    162 HH12 ARG A  10     -16.565  40.593  86.806  0.00  0.00    +0.255 HD
ATOM    163  HE  ARG A  10     -14.961  39.265  87.625  0.00  0.00    +0.259 HD
ENDBRANCH 154 155
ENDBRANCH 153 154
ENDBRANCH 152 153
ENDBRANCH   4 152
TORSDOF 58
REMARK  Name = ../refined-set-2016/4kiu/4kiu_pocket.pdb
REMARK  204 active torsions:
REMARK  status: ('A' for Active; 'I' for Inactive)
REMARK    1  A    between atoms: _1  and  _3
REMARK    2  A    between atoms: _3  and  _4
REMARK    3  A    between atoms: _3  and  _6
REMARK    4  A    between atoms: _6  and  _7
REMARK    5  A    between atoms: _12  and  _14
REMARK    6  A    between atoms: _14  and  _15
REMARK    7  A    between atoms: _18  and  _19
REMARK    8  A    between atoms: _24  and  _26
REMARK    9  A    between atoms: _26  and  _27
REMARK   10  A    between atoms: _26  and  _29
REMARK   11  A    between atoms: _29  and  _30
REMARK   12  A    between atoms: _35  and  _37
REMARK   13  A    between atoms: _37  and  _38
REMARK   14  A    between atoms: _37  and  _40
REMARK   15  A    between atoms: _40  and  _41
REMARK   16  A    between atoms: _44  and  _46
REMARK   17  A    between atoms: _46  and  _47
REMARK   18  A    between atoms: _49  and  _51
REMARK   19  A    between atoms: _51  and  _52
REMARK   20  A    between atoms: _51  and  _54
REMARK   21  A    between atoms: _54  and  _55
REMARK   22  A    between atoms: _55  and  _56
REMARK   23  A    between atoms: _56  and  _57
REMARK   24  A    between atoms: _66  and  _68
REMARK   25  A    between atoms: _68  and  _69
REMARK   26  A    between atoms: _68  and  _71
REMARK   27  A    between atoms: _71  and  _72
REMARK   28  A    between atoms: _75  and  _77
REMARK   29  A    between atoms: _77  and  _78
REMARK   30  A    between atoms: _82  and  _83
REMARK   31  A    between atoms: _82  and  _85
REMARK   32  A    between atoms: _85  and  _86
REMARK   33  A    between atoms: _86  and  _87
REMARK   34  A    between atoms: _87  and  _88
REMARK   35  A    between atoms: _97  and  _99
REMARK   36  A    between atoms: _99  and  _100
REMARK   37  A    between atoms: _99  and  _102
REMARK   38  A    between atoms: _102  and  _103
REMARK   39  A    between atoms: _103  and  _104
REMARK   40  A    between atoms: _104  and  _105
REMARK   41  A    between atoms: _114  and  _116
REMARK   42  A    between atoms: _116  and  _117
REMARK   43  A    between atoms: _116  and  _119
REMARK   44  A    between atoms: _119  and  _120
REMARK   45  A    between atoms: _120  and  _121
REMARK   46  A    between atoms: _125  and  _126
REMARK   47  A    between atoms: _131  and  _133
REMARK   48  A    between atoms: _133  and  _134
REMARK   49  A    between atoms: _137  and  _139
REMARK   50  A    between atoms: _139  and  _140
REMARK   51  A    between atoms: _139  and  _142
REMARK   52  A    between atoms: _145  and  _147
REMARK   53  A    between atoms: _147  and  _148
REMARK   54  A    between atoms: _147  and  _150
REMARK   55  A    between atoms: _150  and  _151
REMARK   56  A    between atoms: _156  and  _157
REMARK   57  A    between atoms: _159  and  _161
REMARK   58  A    between atoms: _161  and  _162
REMARK   59  A    between atoms: _164  and  _166
REMARK   60  A    between atoms: _166  and  _167
REMARK   61  A    between atoms: _166  and  _169
REMARK   62  A    between atoms: _169  and  _170
REMARK   63  A    between atoms: _173  and  _175
REMARK   64  A    between atoms: _175  and  _176
REMARK   65  A    between atoms: _175  and  _178
REMARK   66  A    between atoms: _178  and  _179
REMARK   67  A    between atoms: _184  and  _186
REMARK   68  A    between atoms: _186  and  _187
REMARK   69  A    between atoms: _186  and  _189
REMARK   70  A    between atoms: _189  and  _190
REMARK   71  A    between atoms: _190  and  _191
REMARK   72  A    between atoms: _196  and  _198
REMARK   73  A    between atoms: _198  and  _199
REMARK   74  A    between atoms: _198  and  _201
REMARK   75  A    between atoms: _201  and  _202
REMARK   76  A    between atoms: _205  and  _207
REMARK   77  A    between atoms: _207  and  _208
REMARK   78  A    between atoms: _207  and  _210
REMARK   79  A    between atoms: _210  and  _211
REMARK   80  A    between atoms: _216  and  _218
REMARK   81  A    between atoms: _218  and  _219
REMARK   82  A    between atoms: _222  and  _224
REMARK   83  A    between atoms: _224  and  _225
REMARK   84  A    between atoms: _227  and  _229
REMARK   85  A    between atoms: _229  and  _230
REMARK   86  A    between atoms: _232  and  _234
REMARK   87  A    between atoms: _234  and  _235
REMARK   88  A    between atoms: _234  and  _237
REMARK   89  A    between atoms: _237  and  _238
REMARK   90  A    between atoms: _241  and  _243
REMARK   91  A    between atoms: _243  and  _244
REMARK   92  A    between atoms: _243  and  _246
REMARK   93  A    between atoms: _246  and  _247
REMARK   94  A    between atoms: _250  and  _252
REMARK   95  A    between atoms: _252  and  _253
REMARK   96  A    between atoms: _252  and  _255
REMARK   97  A    between atoms: _255  and  _256
REMARK   98  A    between atoms: _261  and  _263
REMARK   99  A    between atoms: _263  and  _264
REMARK  100  A    between atoms: _263  and  _266
REMARK  101  A    between atoms: _269  and  _271
REMARK  102  A    between atoms: _271  and  _272
REMARK  103  A    between atoms: _271  and  _274
REMARK  104  A    between atoms: _274  and  _275
REMARK  105  A    between atoms: _280  and  _282
REMARK  106  A    between atoms: _282  and  _283
REMARK  107  A    between atoms: _282  and  _285
REMARK  108  A    between atoms: _285  and  _286
REMARK  109  A    between atoms: _289  and  _291
REMARK  110  A    between atoms: _291  and  _292
REMARK  111  A    between atoms: _291  and  _294
REMARK  112  A    between atoms: _294  and  _295
REMARK  113  A    between atoms: _297  and  _299
REMARK  114  A    between atoms: _299  and  _300
REMARK  115  A    between atoms: _299  and  _302
REMARK  116  A    between atoms: _302  and  _303
REMARK  117  A    between atoms: _308  and  _310
REMARK  118  A    between atoms: _310  and  _311
REMARK  119  A    between atoms: _310  and  _313
REMARK  120  A    between atoms: _316  and  _318
REMARK  121  A    between atoms: _318  and  _319
REMARK  122  A    between atoms: _318  and  _321
REMARK  123  A    between atoms: _321  and  _322
REMARK  124  A    between atoms: _327  and  _329
REMARK  125  A    between atoms: _329  and  _330
REMARK  126  A    between atoms: _333  and  _335
REMARK  127  A    between atoms: _335  and  _336
REMARK  128  A    between atoms: _335  and  _338
REMARK  129  A    between atoms: _338  and  _339
REMARK  130  A    between atoms: _339  and  _340
REMARK  131  A    between atoms: _340  and  _341
REMARK  132  A    between atoms: _350  and  _352
REMARK  133  A    between atoms: _352  and  _353
REMARK  134  A    between atoms: _352  and  _355
REMARK  135  A    between atoms: _355  and  _356
REMARK  136  A    between atoms: _356  and  _357
REMARK  137  A    between atoms: _360  and  _362
REMARK  138  A    between atoms: _362  and  _363
REMARK  139  A    between atoms: _362  and  _365
REMARK  140  A    between atoms: _365  and  _366
REMARK  141  A    between atoms: _372  and  _374
REMARK  142  A    between atoms: _374  and  _375
REMARK  143  A    between atoms: _374  and  _377
REMARK  144  A    between atoms: _377  and  _378
REMARK  145  A    between atoms: _378  and  _379
REMARK  146  A    between atoms: _379  and  _380
REMARK  147  A    between atoms: _389  and  _391
REMARK  148  A    between atoms: _391  and  _392
REMARK  149  A    between atoms: _391  and  _394
REMARK  150  A    between atoms: _394  and  _395
REMARK  151  A    between atoms: _395  and  _396
REMARK  152  A    between atoms: _396  and  _397
REMARK  153  A    between atoms: _406  and  _408
REMARK  154  A    between atoms: _408  and  _409
REMARK  155  A    between atoms: _408  and  _411
REMARK  156  A    between atoms: _411  and  _412
REMARK  157  A    between atoms: _417  and  _419
REMARK  158  A    between atoms: _419  and  _420
REMARK  159  A    between atoms: _419  and  _422
REMARK  160  A    between atoms: _422  and  _423
REMARK  161  A    between atoms: _426  and  _428
REMARK  162  A    between atoms: _428  and  _429
REMARK  163  A    between atoms: _428  and  _431
REMARK  164  A    between atoms: _434  and  _436
REMARK  165  A    between atoms: _436  and  _437
REMARK  166  A    between atoms: _439  and  _441
REMARK  167  A    between atoms: _441  and  _442
REMARK  168  A    between atoms: _441  and  _444
REMARK  169  A    between atoms: _444  and  _445
REMARK  170  A    between atoms: _448  and  _450
REMARK  171  A    between atoms: _450  and  _451
REMARK  172  A    between atoms: _453  and  _455
REMARK  173  A    between atoms: _455  and  _456
REMARK  174  A    between atoms: _455  and  _458
REMARK  175  A    between atoms: _458  and  _459
REMARK  176  A    between atoms: _464  and  _465
REMARK  177  A    between atoms: _467  and  _469
REMARK  178  A    between atoms: _469  and  _470
REMARK  179  A    between atoms: _469  and  _472
REMARK  180  A    between atoms: _472  and  _473
REMARK  181  A    between atoms: _478  and  _480
REMARK  182  A    between atoms: _480  and  _481
REMARK  183  A    between atoms: _480  and  _483
REMARK  184  A    between atoms: _486  and  _488
REMARK  185  A    between atoms: _488  and  _489
REMARK  186  A    between atoms: _492  and  _494
REMARK  187  A    between atoms: _494  and  _495
REMARK  188  A    between atoms: _494  and  _497
REMARK  189  A    between atoms: _497  and  _498
REMARK  190  A    between atoms: _498  and  _499
REMARK  191  A    between atoms: _499  and  _500
REMARK  192  A    between atoms: _509  and  _511
REMARK  193  A    between atoms: _511  and  _512
REMARK  194  A    between atoms: _511  and  _514
REMARK  195  A    between atoms: _514  and  _515
REMARK  196  A    between atoms: _518  and  _520
REMARK  197  A    between atoms: _520  and  _521
REMARK  198  A    between atoms: _524  and  _526
REMARK  199  A    between atoms: _526  and  _527
REMARK  200  A    between atoms: _530  and  _532
REMARK  201  A    between atoms: _532  and  _533
REMARK  202  A    between atoms: _532  and  _535
REMARK  203  A    between atoms: _535  and  _536
REMARK  204  A    between atoms: _536  and  _537
REMARK                            x       y       z     vdW  Elec       q    Type
REMARK                         _______ _______ _______ _____ _____    ______ ____
ROOT
ATOM      1  CA  THR A   1     -10.142  30.822  92.024  0.00  0.00    +0.160 C 
ENDROOT
BRANCH   1   2
ATOM      2  N   THR A   1     -10.753  29.818  91.164  0.00  0.00    -0.237 NA
ATOM      3  H   THR A   1     -10.135  29.186  90.616  0.00  0.00    +0.142 HD
ENDBRANCH   1   2
BRANCH   1   4
ATOM      4  CB  THR A   1      -8.653  30.497  92.267  0.00  0.00    +0.134 C 
ATOM      5  CG2 THR A   1      -8.006  31.496  93.234  0.00  0.00    +0.034 C 
BRANCH   4   6
ATOM      6  OG1 THR A   1      -8.536  29.175  92.802  0.00  0.00    -0.383 OA
ATOM      7  HG1 THR A   1      -7.581  28.967  92.958  0.00  0.00    +0.210 HD
ENDBRANCH   4   6
ENDBRANCH   1   4
BRANCH   1   8
ATOM      8  C   THR A   1     -10.250  32.229  91.426  0.00  0.00    +0.227 C 
ATOM      9  O   THR A   1      -9.875  32.459  90.281  0.00  0.00    -0.287 OA
ENDBRANCH   1   8
TORSDOF 4
REMARK  Name = ../refined-set-2016/4kiu/4kiu_pocket.pdb
REMARK  204 active torsions:
REMARK  status: ('A' for Active; 'I' for Inactive)
REMARK    1  A    between atoms: _1  and  _3
REMARK    2  A    between atoms: _3  and  _4
REMARK    3  A    between atoms: _3  and  _6
REMARK    4  A    between atoms: _6  and  _7
REMARK    5  A    between atoms: _12  and  _14
REMARK    6  A    between atoms: _14  and  _15
REMARK    7  A    between atoms: _18  and  _19
REMARK    8  A    between atoms: _24  and  _26
REMARK    9  A    between atoms: _26  and  _27
REMARK   10  A    between atoms: _26  and  _29
REMARK   11  A    between atoms: _29  and  _30
REMARK   12  A    between atoms: _35  and  _37
REMARK   13  A    between atoms: _37  and  _38
REMARK   14  A    between atoms: _37  and  _40
REMARK   15  A    between atoms: _40  and  _41
REMARK   16  A    between atoms: _44  and  _46
REMARK   17  A    between atoms: _46  and  _47
REMARK   18  A    between atoms: _49  and  _51
REMARK   19  A    between atoms: _51  and  _52
REMARK   20  A    between atoms: _51  and  _54
REMARK   21  A    between atoms: _54  and  _55
REMARK   22  A    between atoms: _55  and  _56
REMARK   23  A    between atoms: _56  and  _57
REMARK   24  A    between atoms: _66  and  _68
REMARK   25  A    between atoms: _68  and  _69
REMARK   26  A    between atoms: _68  and  _71
REMARK   27  A    between atoms: _71  and  _72
REMARK   28  A    between atoms: _75  and  _77
REMARK   29  A    between atoms: _77  and  _78
REMARK   30  A    between atoms: _82  and  _83
REMARK   31  A    between atoms: _82  and  _85
REMARK   32  A    between atoms: _85  and  _86
REMARK   33  A    between atoms: _86  and  _87
REMARK   34  A    between atoms: _87  and  _88
REMARK   35  A    between atoms: _97  and  _99
REMARK   36  A    between atoms: _99  and  _100
REMARK   37  A    between atoms: _99  and  _102
REMARK   38  A    between atoms: _102  and  _103
REMARK   39  A    between atoms: _103  and  _104
REMARK   40  A    between atoms: _104  and  _105
REMARK   41  A    between atoms: _114  and  _116
REMARK   42  A    between atoms: _116  and  _117
REMARK   43  A    between atoms: _116  and  _119
REMARK   44  A    between atoms: _119  and  _120
REMARK   45  A    between atoms: _120  and  _121
REMARK   46  A    between atoms: _125  and  _126
REMARK   47  A    between atoms: _131  and  _133
REMARK   48  A    between atoms: _133  and  _134
REMARK   49  A    between atoms: _137  and  _139
REMARK   50  A    between atoms: _139  and  _140
REMARK   51  A    between atoms: _139  and  _142
REMARK   52  A    between atoms: _145  and  _147
REMARK   53  A    between atoms: _147  and  _148
REMARK   54  A    between atoms: _147  and  _150
REMARK   55  A    between atoms: _150  and  _151
REMARK   56  A    between atoms: _156  and  _157
REMARK   57  A    between atoms: _159  and  _161
REMARK   58  A    between atoms: _161  and  _162
REMARK   59  A    between atoms: _164  and  _166
REMARK   60  A    between atoms: _166  and  _167
REMARK   61  A    between atoms: _166  and  _169
REMARK   62  A    between atoms: _169  and  _170
REMARK   63  A    between atoms: _173  and  _175
REMARK   64  A    between atoms: _175  and  _176
REMARK   65  A    between atoms: _175  and  _178
REMARK   66  A    between atoms: _178  and  _179
REMARK   67  A    between atoms: _184  and  _186
REMARK   68  A    between atoms: _186  and  _187
REMARK   69  A    between atoms: _186  and  _189
REMARK   70  A    between atoms: _189  and  _190
REMARK   71  A    between atoms: _190  and  _191
REMARK   72  A    between atoms: _196  and  _198
REMARK   73  A    between atoms: _198  and  _199
REMARK   74  A    between atoms: _198  and  _201
REMARK   75  A    between atoms: _201  and  _202
REMARK   76  A    between atoms: _205  and  _207
REMARK   77  A    between atoms: _207  and  _208
REMARK   78  A    between atoms: _207  and  _210
REMARK   79  A    between atoms: _210  and  _211
REMARK   80  A    between atoms: _216  and  _218
REMARK   81  A    between atoms: _218  and  _219
REMARK   82  A    between atoms: _222  and  _224
REMARK   83  A    between atoms: _224  and  _225
REMARK   84  A    between atoms: _227  and  _229
REMARK   85  A    between atoms: _229  and  _230
REMARK   86  A    between atoms: _232  and  _234
REMARK   87  A    between atoms: _234  and  _235
REMARK   88  A    between atoms: _234  and  _237
REMARK   89  A    between atoms: _237  and  _238
REMARK   90  A    between atoms: _241  and  _243
REMARK   91  A    between atoms: _243  and  _244
REMARK   92  A    between atoms: _243  and  _246
REMARK   93  A    between atoms: _246  and  _247
REMARK   94  A    between atoms: _250  and  _252
REMARK   95  A    between atoms: _252  and  _253
REMARK   96  A    between atoms: _252  and  _255
REMARK   97  A    between atoms: _255  and  _256
REMARK   98  A    between atoms: _261  and  _263
REMARK   99  A    between atoms: _263  and  _264
REMARK  100  A    between atoms: _263  and  _266
REMARK  101  A    between atoms: _269  and  _271
REMARK  102  A    between atoms: _271  and  _272
REMARK  103  A    between atoms: _271  and  _274
REMARK  104  A    between atoms: _274  and  _275
REMARK  105  A    between atoms: _280  and  _282
REMARK  106  A    between atoms: _282  and  _283
REMARK  107  A    between atoms: _282  and  _285
REMARK  108  A    between atoms: _285  and  _286
REMARK  109  A    between atoms: _289  and  _291
REMARK  110  A    between atoms: _291  and  _292
REMARK  111  A    between atoms: _291  and  _294
REMARK  112  A    between atoms: _294  and  _295
REMARK  113  A    between atoms: _297  and  _299
REMARK  114  A    between atoms: _299  and  _300
REMARK  115  A    between atoms: _299  and  _302
REMARK  116  A    between atoms: _302  and  _303
REMARK  117  A    between atoms: _308  and  _310
REMARK  118  A    between atoms: _310  and  _311
REMARK  119  A    between atoms: _310  and  _313
REMARK  120  A    between atoms: _316  and  _318
REMARK  121  A    between atoms: _318  and  _319
REMARK  122  A    between atoms: _318  and  _321
REMARK  123  A    between atoms: _321  and  _322
REMARK  124  A    between atoms: _327  and  _329
REMARK  125  A    between atoms: _329  and  _330
REMARK  126  A    between atoms: _333  and  _335
REMARK  127  A    between atoms: _335  and  _336
REMARK  128  A    between atoms: _335  and  _338
REMARK  129  A    between atoms: _338  and  _339
REMARK  130  A    between atoms: _339  and  _340
REMARK  131  A    between atoms: _340  and  _341
REMARK  132  A    between atoms: _350  and  _352
REMARK  133  A    between atoms: _352  and  _353
REMARK  134  A    between atoms: _352  and  _355
REMARK  135  A    between atoms: _355  and  _356
REMARK  136  A    between atoms: _356  and  _357
REMARK  137  A    between atoms: _360  and  _362
REMARK  138  A    between atoms: _362  and  _363
REMARK  139  A    between atoms: _362  and  _365
REMARK  140  A    between atoms: _365  and  _366
REMARK  141  A    between atoms: _372  and  _374
REMARK  142  A    between atoms: _374  and  _375
REMARK  143  A    between atoms: _374  and  _377
REMARK  144  A    between atoms: _377  and  _378
REMARK  145  A    between atoms: _378  and  _379
REMARK  146  A    between atoms: _379  and  _380
REMARK  147  A    between atoms: _389  and  _391
REMARK  148  A    between atoms: _391  and  _392
REMARK  149  A    between atoms: _391  and  _394
REMARK  150  A    between atoms: _394  and  _395
REMARK  151  A    between atoms: _395  and  _396
REMARK  152  A    between atoms: _396  and  _397
REMARK  153  A    between atoms: _406  and  _408
REMARK  154  A    between atoms: _408  and  _409
REMARK  155  A    between atoms: _408  and  _411
REMARK  156  A    between atoms: _411  and  _412
REMARK  157  A    between atoms: _417  and  _419
REMARK  158  A    between atoms: _419  and  _420
REMARK  159  A    between atoms: _419  and  _422
REMARK  160  A    between atoms: _422  and  _423
REMARK  161  A    between atoms: _426  and  _428
REMARK  162  A    between atoms: _428  and  _429
REMARK  163  A    between atoms: _428  and  _431
REMARK  164  A    between atoms: _434  and  _436
REMARK  165  A    between atoms: _436  and  _437
REMARK  166  A    between atoms: _439  and  _441
REMARK  167  A    between atoms: _441  and  _442
REMARK  168  A    between atoms: _441  and  _444
REMARK  169  A    between atoms: _444  and  _445
REMARK  170  A    between atoms: _448  and  _450
REMARK  171  A    between atoms: _450  and  _451
REMARK  172  A    between atoms: _453  and  _455
REMARK  173  A    between atoms: _455  and  _456
REMARK  174  A    between atoms: _455  and  _458
REMARK  175  A    between atoms: _458  and  _459
REMARK  176  A    between atoms: _464  and  _465
REMARK  177  A    between atoms: _467  and  _469
REMARK  178  A    between atoms: _469  and  _470
REMARK  179  A    between atoms: _469  and  _472
REMARK  180  A    between atoms: _472  and  _473
REMARK  181  A    between atoms: _478  and  _480
REMARK  182  A    between atoms: _480  and  _481
REMARK  183  A    between atoms: _480  and  _483
REMARK  184  A    between atoms: _486  and  _488
REMARK  185  A    between atoms: _488  and  _489
REMARK  186  A    between atoms: _492  and  _494
REMARK  187  A    between atoms: _494  and  _495
REMARK  188  A    between atoms: _494  and  _497
REMARK  189  A    between atoms: _497  and  _498
REMARK  190  A    between atoms: _498  and  _499
REMARK  191  A    between atoms: _499  and  _500
REMARK  192  A    between atoms: _509  and  _511
REMARK  193  A    between atoms: _511  and  _512
REMARK  194  A    between atoms: _511  and  _514
REMARK  195  A    between atoms: _514  and  _515
REMARK  196  A    between atoms: _518  and  _520
REMARK  197  A    between atoms: _520  and  _521
REMARK  198  A    between atoms: _524  and  _526
REMARK  199  A    between atoms: _526  and  _527
REMARK  200  A    between atoms: _530  and  _532
REMARK  201  A    between atoms: _532  and  _533
REMARK  202  A    between atoms: _532  and  _535
REMARK  203  A    between atoms: _535  and  _536
REMARK  204  A    between atoms: _536  and  _537
REMARK                            x       y       z     vdW  Elec       q    Type
REMARK                         _______ _______ _______ _____ _____    ______ ____
ROOT
ATOM      1  CB  HIS A   1      -7.796  38.344  90.789  0.00  0.00    +0.072 C 
ENDROOT
BRANCH   1   2
ATOM      2  CG  HIS A   1      -6.381  38.891  90.819  0.00  0.00    +0.082 A 
ATOM      3  ND1 HIS A   1      -5.961  39.803  91.751  0.00  0.00    -0.227 NA
ATOM      4  CE1 HIS A   1      -4.661  40.065  91.564  0.00  0.00    +0.199 A 
ATOM      5  NE2 HIS A   1      -4.227  39.312  90.518  0.00  0.00    -0.221 NA
ATOM      6  CD2 HIS A   1      -5.265  38.576  90.043  0.00  0.00    +0.115 A 
ENDBRANCH   1   2
BRANCH   1   7
ATOM      7  CA  HIS A   1      -7.973  37.102  91.654  0.00  0.00    +0.139 C 
BRANCH   7   8
ATOM      8  N   HIS A   1      -9.247  36.415  91.442  0.00  0.00    -0.239 NA
ATOM      9  H   HIS A   1      -9.968  36.816  90.809  0.00  0.00    +0.142 HD
ENDBRANCH   7   8
BRANCH   7  10
ATOM     10  C   HIS A   1      -7.733  37.393  93.123  0.00  0.00    +0.224 C 
ATOM     11  O   HIS A   1      -6.606  37.242  93.615  0.00  0.00    -0.287 OA
ENDBRANCH   7  10
ENDBRANCH   1   7
TORSDOF 4
REMARK  Name = ../refined-set-2016/4kiu/4kiu_pocket.pdb
REMARK  204 active torsions:
REMARK  status: ('A' for Active; 'I' for Inactive)
REMARK    1  A    between atoms: _1  and  _3
REMARK    2  A    between atoms: _3  and  _4
REMARK    3  A    between atoms: _3  and  _6
REMARK    4  A    between atoms: _6  and  _7
REMARK    5  A    between atoms: _12  and  _14
REMARK    6  A    between atoms: _14  and  _15
REMARK    7  A    between atoms: _18  and  _19
REMARK    8  A    between atoms: _24  and  _26
REMARK    9  A    between atoms: _26  and  _27
REMARK   10  A    between atoms: _26  and  _29
REMARK   11  A    between atoms: _29  and  _30
REMARK   12  A    between atoms: _35  and  _37
REMARK   13  A    between atoms: _37  and  _38
REMARK   14  A    between atoms: _37  and  _40
REMARK   15  A    between atoms: _40  and  _41
REMARK   16  A    between atoms: _44  and  _46
REMARK   17  A    between atoms: _46  and  _47
REMARK   18  A    between atoms: _49  and  _51
REMARK   19  A    between atoms: _51  and  _52
REMARK   20  A    between atoms: _51  and  _54
REMARK   21  A    between atoms: _54  and  _55
REMARK   22  A    between atoms: _55  and  _56
REMARK   23  A    between atoms: _56  and  _57
REMARK   24  A    between atoms: _66  and  _68
REMARK   25  A    between atoms: _68  and  _69
REMARK   26  A    between atoms: _68  and  _71
REMARK   27  A    between atoms: _71  and  _72
REMARK   28  A    between atoms: _75  and  _77
REMARK   29  A    between atoms: _77  and  _78
REMARK   30  A    between atoms: _82  and  _83
REMARK   31  A    between atoms: _82  and  _85
REMARK   32  A    between atoms: _85  and  _86
REMARK   33  A    between atoms: _86  and  _87
REMARK   34  A    between atoms: _87  and  _88
REMARK   35  A    between atoms: _97  and  _99
REMARK   36  A    between atoms: _99  and  _100
REMARK   37  A    between atoms: _99  and  _102
REMARK   38  A    between atoms: _102  and  _103
REMARK   39  A    between atoms: _103  and  _104
REMARK   40  A    between atoms: _104  and  _105
REMARK   41  A    between atoms: _114  and  _116
REMARK   42  A    between atoms: _116  and  _117
REMARK   43  A    between atoms: _116  and  _119
REMARK   44  A    between atoms: _119  and  _120
REMARK   45  A    between atoms: _120  and  _121
REMARK   46  A    between atoms: _125  and  _126
REMARK   47  A    between atoms: _131  and  _133
REMARK   48  A    between atoms: _133  and  _134
REMARK   49  A    between atoms: _137  and  _139
REMARK   50  A    between atoms: _139  and  _140
REMARK   51  A    between atoms: _139  and  _142
REMARK   52  A    between atoms: _145  and  _147
REMARK   53  A    between atoms: _147  and  _148
REMARK   54  A    between atoms: _147  and  _150
REMARK   55  A    between atoms: _150  and  _151
REMARK   56  A    between atoms: _156  and  _157
REMARK   57  A    between atoms: _159  and  _161
REMARK   58  A    between atoms: _161  and  _162
REMARK   59  A    between atoms: _164  and  _166
REMARK   60  A    between atoms: _166  and  _167
REMARK   61  A    between atoms: _166  and  _169
REMARK   62  A    between atoms: _169  and  _170
REMARK   63  A    between atoms: _173  and  _175
REMARK   64  A    between atoms: _175  and  _176
REMARK   65  A    between atoms: _175  and  _178
REMARK   66  A    between atoms: _178  and  _179
REMARK   67  A    between atoms: _184  and  _186
REMARK   68  A    between atoms: _186  and  _187
REMARK   69  A    between atoms: _186  and  _189
REMARK   70  A    between atoms: _189  and  _190
REMARK   71  A    between atoms: _190  and  _191
REMARK   72  A    between atoms: _196  and  _198
REMARK   73  A    between atoms: _198  and  _199
REMARK   74  A    between atoms: _198  and  _201
REMARK   75  A    between atoms: _201  and  _202
REMARK   76  A    between atoms: _205  and  _207
REMARK   77  A    between atoms: _207  and  _208
REMARK   78  A    between atoms: _207  and  _210
REMARK   79  A    between atoms: _210  and  _211
REMARK   80  A    between atoms: _216  and  _218
REMARK   81  A    between atoms: _218  and  _219
REMARK   82  A    between atoms: _222  and  _224
REMARK   83  A    between atoms: _224  and  _225
REMARK   84  A    between atoms: _227  and  _229
REMARK   85  A    between atoms: _229  and  _230
REMARK   86  A    between atoms: _232  and  _234
REMARK   87  A    between atoms: _234  and  _235
REMARK   88  A    between atoms: _234  and  _237
REMARK   89  A    between atoms: _237  and  _238
REMARK   90  A    between atoms: _241  and  _243
REMARK   91  A    between atoms: _243  and  _244
REMARK   92  A    between atoms: _243  and  _246
REMARK   93  A    between atoms: _246  and  _247
REMARK   94  A    between atoms: _250  and  _252
REMARK   95  A    between atoms: _252  and  _253
REMARK   96  A    between atoms: _252  and  _255
REMARK   97  A    between atoms: _255  and  _256
REMARK   98  A    between atoms: _261  and  _263
REMARK   99  A    between atoms: _263  and  _264
REMARK  100  A    between atoms: _263  and  _266
REMARK  101  A    between atoms: _269  and  _271
REMARK  102  A    between atoms: _271  and  _272
REMARK  103  A    between atoms: _271  and  _274
REMARK  104  A    between atoms: _274  and  _275
REMARK  105  A    between atoms: _280  and  _282
REMARK  106  A    between atoms: _282  and  _283
REMARK  107  A    between atoms: _282  and  _285
REMARK  108  A    between atoms: _285  and  _286
REMARK  109  A    between atoms: _289  and  _291
REMARK  110  A    between atoms: _291  and  _292
REMARK  111  A    between atoms: _291  and  _294
REMARK  112  A    between atoms: _294  and  _295
REMARK  113  A    between atoms: _297  and  _299
REMARK  114  A    between atoms: _299  and  _300
REMARK  115  A    between atoms: _299  and  _302
REMARK  116  A    between atoms: _302  and  _303
REMARK  117  A    between atoms: _308  and  _310
REMARK  118  A    between atoms: _310  and  _311
REMARK  119  A    between atoms: _310  and  _313
REMARK  120  A    between atoms: _316  and  _318
REMARK  121  A    between atoms: _318  and  _319
REMARK  122  A    between atoms: _318  and  _321
REMARK  123  A    between atoms: _321  and  _322
REMARK  124  A    between atoms: _327  and  _329
REMARK  125  A    between atoms: _329  and  _330
REMARK  126  A    between atoms: _333  and  _335
REMARK  127  A    between atoms: _335  and  _336
REMARK  128  A    between atoms: _335  and  _338
REMARK  129  A    between atoms: _338  and  _339
REMARK  130  A    between atoms: _339  and  _340
REMARK  131  A    between atoms: _340  and  _341
REMARK  132  A    between atoms: _350  and  _352
REMARK  133  A    between atoms: _352  and  _353
REMARK  134  A    between atoms: _352  and  _355
REMARK  135  A    between atoms: _355  and  _356
REMARK  136  A    between atoms: _356  and  _357
REMARK  137  A    between atoms: _360  and  _362
REMARK  138  A    between atoms: _362  and  _363
REMARK  139  A    between atoms: _362  and  _365
REMARK  140  A    between atoms: _365  and  _366
REMARK  141  A    between atoms: _372  and  _374
REMARK  142  A    between atoms: _374  and  _375
REMARK  143  A    between atoms: _374  and  _377
REMARK  144  A    between atoms: _377  and  _378
REMARK  145  A    between atoms: _378  and  _379
REMARK  146  A    between atoms: _379  and  _380
REMARK  147  A    between atoms: _389  and  _391
REMARK  148  A    between atoms: _391  and  _392
REMARK  149  A    between atoms: _391  and  _394
REMARK  150  A    between atoms: _394  and  _395
REMARK  151  A    between atoms: _395  and  _396
REMARK  152  A    between atoms: _396  and  _397
REMARK  153  A    between atoms: _406  and  _408
REMARK  154  A    between atoms: _408  and  _409
REMARK  155  A    between atoms: _408  and  _411
REMARK  156  A    between atoms: _411  and  _412
REMARK  157  A    between atoms: _417  and  _419
REMARK  158  A    between atoms: _419  and  _420
REMARK  159  A    between atoms: _419  and  _422
REMARK  160  A    between atoms: _422  and  _423
REMARK  161  A    between atoms: _426  and  _428
REMARK  162  A    between atoms: _428  and  _429
REMARK  163  A    between atoms: _428  and  _431
REMARK  164  A    between atoms: _434  and  _436
REMARK  165  A    between atoms: _436  and  _437
REMARK  166  A    between atoms: _439  and  _441
REMARK  167  A    between atoms: _441  and  _442
REMARK  168  A    between atoms: _441  and  _444
REMARK  169  A    between atoms: _444  and  _445
REMARK  170  A    between atoms: _448  and  _450
REMARK  171  A    between atoms: _450  and  _451
REMARK  172  A    between atoms: _453  and  _455
REMARK  173  A    between atoms: _455  and  _456
REMARK  174  A    between atoms: _455  and  _458
REMARK  175  A    between atoms: _458  and  _459
REMARK  176  A    between atoms: _464  and  _465
REMARK  177  A    between atoms: _467  and  _469
REMARK  178  A    between atoms: _469  and  _470
REMARK  179  A    between atoms: _469  and  _472
REMARK  180  A    between atoms: _472  and  _473
REMARK  181  A    between atoms: _478  and  _480
REMARK  182  A    between atoms: _480  and  _481
REMARK  183  A    between atoms: _480  and  _483
REMARK  184  A    between atoms: _486  and  _488
REMARK  185  A    between atoms: _488  and  _489
REMARK  186  A    between atoms: _492  and  _494
REMARK  187  A    between atoms: _494  and  _495
REMARK  188  A    between atoms: _494  and  _497
REMARK  189  A    between atoms: _497  and  _498
REMARK  190  A    between atoms: _498  and  _499
REMARK  191  A    between atoms: _499  and  _500
REMARK  192  A    between atoms: _509  and  _511
REMARK  193  A    between atoms: _511  and  _512
REMARK  194  A    between atoms: _511  and  _514
REMARK  195  A    between atoms: _514  and  _515
REMARK  196  A    between atoms: _518  and  _520
REMARK  197  A    between atoms: _520  and  _521
REMARK  198  A    between atoms: _524  and  _526
REMARK  199  A    between atoms: _526  and  _527
REMARK  200  A    between atoms: _530  and  _532
REMARK  201  A    between atoms: _532  and  _533
REMARK  202  A    between atoms: _532  and  _535
REMARK  203  A    between atoms: _535  and  _536
REMARK  204  A    between atoms: _536  and  _537
REMARK                            x       y       z     vdW  Elec       q    Type
REMARK                         _______ _______ _______ _____ _____    ______ ____
ROOT
ATOM      1  CB  GLN A   1      -4.253  42.545  89.063  0.00  0.00    +0.035 C 
ENDROOT
BRANCH   1   2
ATOM      2  CA  GLN A   1      -3.014  43.406  88.825  0.00  0.00    +0.134 C 
BRANCH   2   3
ATOM      3  N   GLN A   1      -2.374  43.757  90.078  0.00  0.00    -0.239 NA
ATOM      4  H   GLN A   1      -2.871  44.383  90.744  0.00  0.00    +0.142 HD
ENDBRANCH   2   3
BRANCH   2   5
ATOM      5  C   GLN A   1      -3.374  44.666  88.074  0.00  0.00    +0.224 C 
ATOM      6  O   GLN A   1      -3.795  45.639  88.666  0.00  0.00    -0.287 OA
ENDBRANCH   2   5
ENDBRANCH   1   2
BRANCH   1   7
ATOM      7  CG  GLN A   1      -4.775  41.832  87.803  0.00  0.00    +0.087 C 
BRANCH   7   8
ATOM      8  CD  GLN A   1      -5.656  42.701  86.883  0.00  0.00    +0.219 C 
ATOM      9  OE1 GLN A   1      -6.381  43.587  87.335  0.00  0.00    -0.275 OA
ATOM     10  NE2 GLN A   1      -5.590  42.438  85.585  0.00  0.00    -0.329 N 
ATOM     11 HE21 GLN A   1      -4.966  41.682  85.239  0.00  0.00    +0.145 HD
ATOM     12 HE22 GLN A   1      -6.162  42.988  84.913  0.00  0.00    +0.145 HD
ENDBRANCH   7   8
ENDBRANCH   1   7
TORSDOF 5
REMARK  Name = ../refined-set-2016/4kiu/4kiu_pocket.pdb
REMARK  204 active torsions:
REMARK  status: ('A' for Active; 'I' for Inactive)
REMARK    1  A    between atoms: _1  and  _3
REMARK    2  A    between atoms: _3  and  _4
REMARK    3  A    between atoms: _3  and  _6
REMARK    4  A    between atoms: _6  and  _7
REMARK    5  A    between atoms: _12  and  _14
REMARK    6  A    between atoms: _14  and  _15
REMARK    7  A    between atoms: _18  and  _19
REMARK    8  A    between atoms: _24  and  _26
REMARK    9  A    between atoms: _26  and  _27
REMARK   10  A    between atoms: _26  and  _29
REMARK   11  A    between atoms: _29  and  _30
REMARK   12  A    between atoms: _35  and  _37
REMARK   13  A    between atoms: _37  and  _38
REMARK   14  A    between atoms: _37  and  _40
REMARK   15  A    between atoms: _40  and  _41
REMARK   16  A    between atoms: _44  and  _46
REMARK   17  A    between atoms: _46  and  _47
REMARK   18  A    between atoms: _49  and  _51
REMARK   19  A    between atoms: _51  and  _52
REMARK   20  A    between atoms: _51  and  _54
REMARK   21  A    between atoms: _54  and  _55
REMARK   22  A    between atoms: _55  and  _56
REMARK   23  A    between atoms: _56  and  _57
REMARK   24  A    between atoms: _66  and  _68
REMARK   25  A    between atoms: _68  and  _69
REMARK   26  A    between atoms: _68  and  _71
REMARK   27  A    between atoms: _71  and  _72
REMARK   28  A    between atoms: _75  and  _77
REMARK   29  A    between atoms: _77  and  _78
REMARK   30  A    between atoms: _82  and  _83
REMARK   31  A    between atoms: _82  and  _85
REMARK   32  A    between atoms: _85  and  _86
REMARK   33  A    between atoms: _86  and  _87
REMARK   34  A    between atoms: _87  and  _88
REMARK   35  A    between atoms: _97  and  _99
REMARK   36  A    between atoms: _99  and  _100
REMARK   37  A    between atoms: _99  and  _102
REMARK   38  A    between atoms: _102  and  _103
REMARK   39  A    between atoms: _103  and  _104
REMARK   40  A    between atoms: _104  and  _105
REMARK   41  A    between atoms: _114  and  _116
REMARK   42  A    between atoms: _116  and  _117
REMARK   43  A    between atoms: _116  and  _119
REMARK   44  A    between atoms: _119  and  _120
REMARK   45  A    between atoms: _120  and  _121
REMARK   46  A    between atoms: _125  and  _126
REMARK   47  A    between atoms: _131  and  _133
REMARK   48  A    between atoms: _133  and  _134
REMARK   49  A    between atoms: _137  and  _139
REMARK   50  A    between atoms: _139  and  _140
REMARK   51  A    between atoms: _139  and  _142
REMARK   52  A    between atoms: _145  and  _147
REMARK   53  A    between atoms: _147  and  _148
REMARK   54  A    between atoms: _147  and  _150
REMARK   55  A    between atoms: _150  and  _151
REMARK   56  A    between atoms: _156  and  _157
REMARK   57  A    between atoms: _159  and  _161
REMARK   58  A    between atoms: _161  and  _162
REMARK   59  A    between atoms: _164  and  _166
REMARK   60  A    between atoms: _166  and  _167
REMARK   61  A    between atoms: _166  and  _169
REMARK   62  A    between atoms: _169  and  _170
REMARK   63  A    between atoms: _173  and  _175
REMARK   64  A    between atoms: _175  and  _176
REMARK   65  A    between atoms: _175  and  _178
REMARK   66  A    between atoms: _178  and  _179
REMARK   67  A    between atoms: _184  and  _186
REMARK   68  A    between atoms: _186  and  _187
REMARK   69  A    between atoms: _186  and  _189
REMARK   70  A    between atoms: _189  and  _190
REMARK   71  A    between atoms: _190  and  _191
REMARK   72  A    between atoms: _196  and  _198
REMARK   73  A    between atoms: _198  and  _199
REMARK   74  A    between atoms: _198  and  _201
REMARK   75  A    between atoms: _201  and  _202
REMARK   76  A    between atoms: _205  and  _207
REMARK   77  A    between atoms: _207  and  _208
REMARK   78  A    between atoms: _207  and  _210
REMARK   79  A    between atoms: _210  and  _211
REMARK   80  A    between atoms: _216  and  _218
REMARK   81  A    between atoms: _218  and  _219
REMARK   82  A    between atoms: _222  and  _224
REMARK   83  A    between atoms: _224  and  _225
REMARK   84  A    between atoms: _227  and  _229
REMARK   85  A    between atoms: _229  and  _230
REMARK   86  A    between atoms: _232  and  _234
REMARK   87  A    between atoms: _234  and  _235
REMARK   88  A    between atoms: _234  and  _237
REMARK   89  A    between atoms: _237  and  _238
REMARK   90  A    between atoms: _241  and  _243
REMARK   91  A    between atoms: _243  and  _244
REMARK   92  A    between atoms: _243  and  _246
REMARK   93  A    between atoms: _246  and  _247
REMARK   94  A    between atoms: _250  and  _252
REMARK   95  A    between atoms: _252  and  _253
REMARK   96  A    between atoms: _252  and  _255
REMARK   97  A    between atoms: _255  and  _256
REMARK   98  A    between atoms: _261  and  _263
REMARK   99  A    between atoms: _263  and  _264
REMARK  100  A    between atoms: _263  and  _266
REMARK  101  A    between atoms: _269  and  _271
REMARK  102  A    between atoms: _271  and  _272
REMARK  103  A    between atoms: _271  and  _274
REMARK  104  A    between atoms: _274  and  _275
REMARK  105  A    between atoms: _280  and  _282
REMARK  106  A    between atoms: _282  and  _283
REMARK  107  A    between atoms: _282  and  _285
REMARK  108  A    between atoms: _285  and  _286
REMARK  109  A    between atoms: _289  and  _291
REMARK  110  A    between atoms: _291  and  _292
REMARK  111  A    between atoms: _291  and  _294
REMARK  112  A    between atoms: _294  and  _295
REMARK  113  A    between atoms: _297  and  _299
REMARK  114  A    between atoms: _299  and  _300
REMARK  115  A    between atoms: _299  and  _302
REMARK  116  A    between atoms: _302  and  _303
REMARK  117  A    between atoms: _308  and  _310
REMARK  118  A    between atoms: _310  and  _311
REMARK  119  A    between atoms: _310  and  _313
REMARK  120  A    between atoms: _316  and  _318
REMARK  121  A    between atoms: _318  and  _319
REMARK  122  A    between atoms: _318  and  _321
REMARK  123  A    between atoms: _321  and  _322
REMARK  124  A    between atoms: _327  and  _329
REMARK  125  A    between atoms: _329  and  _330
REMARK  126  A    between atoms: _333  and  _335
REMARK  127  A    between atoms: _335  and  _336
REMARK  128  A    between atoms: _335  and  _338
REMARK  129  A    between atoms: _338  and  _339
REMARK  130  A    between atoms: _339  and  _340
REMARK  131  A    between atoms: _340  and  _341
REMARK  132  A    between atoms: _350  and  _352
REMARK  133  A    between atoms: _352  and  _353
REMARK  134  A    between atoms: _352  and  _355
REMARK  135  A    between atoms: _355  and  _356
REMARK  136  A    between atoms: _356  and  _357
REMARK  137  A    between atoms: _360  and  _362
REMARK  138  A    between atoms: _362  and  _363
REMARK  139  A    between atoms: _362  and  _365
REMARK  140  A    between atoms: _365  and  _366
REMARK  141  A    between atoms: _372  and  _374
REMARK  142  A    between atoms: _374  and  _375
REMARK  143  A    between atoms: _374  and  _377
REMARK  144  A    between atoms: _377  and  _378
REMARK  145  A    between atoms: _378  and  _379
REMARK  146  A    between atoms: _379  and  _380
REMARK  147  A    between atoms: _389  and  _391
REMARK  148  A    between atoms: _391  and  _392
REMARK  149  A    between atoms: _391  and  _394
REMARK  150  A    between atoms: _394  and  _395
REMARK  151  A    between atoms: _395  and  _396
REMARK  152  A    between atoms: _396  and  _397
REMARK  153  A    between atoms: _406  and  _408
REMARK  154  A    between atoms: _408  and  _409
REMARK  155  A    between atoms: _408  and  _411
REMARK  156  A    between atoms: _411  and  _412
REMARK  157  A    between atoms: _417  and  _419
REMARK  158  A    between atoms: _419  and  _420
REMARK  159  A    between atoms: _419  and  _422
REMARK  160  A    between atoms: _422  and  _423
REMARK  161  A    between atoms: _426  and  _428
REMARK  162  A    between atoms: _428  and  _429
REMARK  163  A    between atoms: _428  and  _431
REMARK  164  A    between atoms: _434  and  _436
REMARK  165  A    between atoms: _436  and  _437
REMARK  166  A    between atoms: _439  and  _441
REMARK  167  A    between atoms: _441  and  _442
REMARK  168  A    between atoms: _441  and  _444
REMARK  169  A    between atoms: _444  and  _445
REMARK  170  A    between atoms: _448  and  _450
REMARK  171  A    between atoms: _450  and  _451
REMARK  172  A    between atoms: _453  and  _455
REMARK  173  A    between atoms: _455  and  _456
REMARK  174  A    between atoms: _455  and  _458
REMARK  175  A    between atoms: _458  and  _459
REMARK  176  A    between atoms: _464  and  _465
REMARK  177  A    between atoms: _467  and  _469
REMARK  178  A    between atoms: _469  and  _470
REMARK  179  A    between atoms: _469  and  _472
REMARK  180  A    between atoms: _472  and  _473
REMARK  181  A    between atoms: _478  and  _480
REMARK  182  A    between atoms: _480  and  _481
REMARK  183  A    between atoms: _480  and  _483
REMARK  184  A    between atoms: _486  and  _488
REMARK  185  A    between atoms: _488  and  _489
REMARK  186  A    between atoms: _492  and  _494
REMARK  187  A    between atoms: _494  and  _495
REMARK  188  A    between atoms: _494  and  _497
REMARK  189  A    between atoms: _497  and  _498
REMARK  190  A    between atoms: _498  and  _499
REMARK  191  A    between atoms: _499  and  _500
REMARK  192  A    between atoms: _509  and  _511
REMARK  193  A    between atoms: _511  and  _512
REMARK  194  A    between atoms: _511  and  _514
REMARK  195  A    between atoms: _514  and  _515
REMARK  196  A    between atoms: _518  and  _520
REMARK  197  A    between atoms: _520  and  _521
REMARK  198  A    between atoms: _524  and  _526
REMARK  199  A    between atoms: _526  and  _527
REMARK  200  A    between atoms: _530  and  _532
REMARK  201  A    between atoms: _532  and  _533
REMARK  202  A    between atoms: _532  and  _535
REMARK  203  A    between atoms: _535  and  _536
REMARK  204  A    between atoms: _536  and  _537
REMARK                            x       y       z     vdW  Elec       q    Type
REMARK                         _______ _______ _______ _____ _____    ______ ____
ROOT
ATOM      1  CA  ASP A   1      -5.154  45.858  82.442  0.00  0.00    +0.144 C 
ENDROOT
BRANCH   1   2
ATOM      2  N   ASP A   1      -4.825  46.117  83.848  0.00  0.00    -0.239 NA
ATOM      3  H   ASP A   1      -5.353  46.848  84.366  0.00  0.00    +0.142 HD
ENDBRANCH   1   2
BRANCH   1   4
ATOM      4  C   ASP A   1      -4.320  46.749  81.585  0.00  0.00    +0.225 C 
ATOM      5  O   ASP A   1      -4.511  46.781  80.378  0.00  0.00    -0.287 OA
ENDBRANCH   1   4
BRANCH   1   6
ATOM      6  CB  ASP A   1      -6.621  46.112  82.152  0.00  0.00    +0.139 C 
BRANCH   6   7
ATOM      7  CG  ASP A   1      -7.539  44.901  82.518  0.00  0.00    +0.367 C 
ATOM      8  OD2 ASP A   1      -7.067  43.813  82.883  0.00  0.00    -0.246 OA
ATOM      9  OD1 ASP A   1      -8.778  45.054  82.439  0.00  0.00    -0.246 OA
ENDBRANCH   6   7
ENDBRANCH   1   6
TORSDOF 4
REMARK  Name = ../refined-set-2016/4kiu/4kiu_pocket.pdb
REMARK  204 active torsions:
REMARK  status: ('A' for Active; 'I' for Inactive)
REMARK    1  A    between atoms: _1  and  _3
REMARK    2  A    between atoms: _3  and  _4
REMARK    3  A    between atoms: _3  and  _6
REMARK    4  A    between atoms: _6  and  _7
REMARK    5  A    between atoms: _12  and  _14
REMARK    6  A    between atoms: _14  and  _15
REMARK    7  A    between atoms: _18  and  _19
REMARK    8  A    between atoms: _24  and  _26
REMARK    9  A    between atoms: _26  and  _27
REMARK   10  A    between atoms: _26  and  _29
REMARK   11  A    between atoms: _29  and  _30
REMARK   12  A    between atoms: _35  and  _37
REMARK   13  A    between atoms: _37  and  _38
REMARK   14  A    between atoms: _37  and  _40
REMARK   15  A    between atoms: _40  and  _41
REMARK   16  A    between atoms: _44  and  _46
REMARK   17  A    between atoms: _46  and  _47
REMARK   18  A    between atoms: _49  and  _51
REMARK   19  A    between atoms: _51  and  _52
REMARK   20  A    between atoms: _51  and  _54
REMARK   21  A    between atoms: _54  and  _55
REMARK   22  A    between atoms: _55  and  _56
REMARK   23  A    between atoms: _56  and  _57
REMARK   24  A    between atoms: _66  and  _68
REMARK   25  A    between atoms: _68  and  _69
REMARK   26  A    between atoms: _68  and  _71
REMARK   27  A    between atoms: _71  and  _72
REMARK   28  A    between atoms: _75  and  _77
REMARK   29  A    between atoms: _77  and  _78
REMARK   30  A    between atoms: _82  and  _83
REMARK   31  A    between atoms: _82  and  _85
REMARK   32  A    between atoms: _85  and  _86
REMARK   33  A    between atoms: _86  and  _87
REMARK   34  A    between atoms: _87  and  _88
REMARK   35  A    between atoms: _97  and  _99
REMARK   36  A    between atoms: _99  and  _100
REMARK   37  A    between atoms: _99  and  _102
REMARK   38  A    between atoms: _102  and  _103
REMARK   39  A    between atoms: _103  and  _104
REMARK   40  A    between atoms: _104  and  _105
REMARK   41  A    between atoms: _114  and  _116
REMARK   42  A    between atoms: _116  and  _117
REMARK   43  A    between atoms: _116  and  _119
REMARK   44  A    between atoms: _119  and  _120
REMARK   45  A    between atoms: _120  and  _121
REMARK   46  A    between atoms: _125  and  _126
REMARK   47  A    between atoms: _131  and  _133
REMARK   48  A    between atoms: _133  and  _134
REMARK   49  A    between atoms: _137  and  _139
REMARK   50  A    between atoms: _139  and  _140
REMARK   51  A    between atoms: _139  and  _142
REMARK   52  A    between atoms: _145  and  _147
REMARK   53  A    between atoms: _147  and  _148
REMARK   54  A    between atoms: _147  and  _150
REMARK   55  A    between atoms: _150  and  _151
REMARK   56  A    between atoms: _156  and  _157
REMARK   57  A    between atoms: _159  and  _161
REMARK   58  A    between atoms: _161  and  _162
REMARK   59  A    between atoms: _164  and  _166
REMARK   60  A    between atoms: _166  and  _167
REMARK   61  A    between atoms: _166  and  _169
REMARK   62  A    between atoms: _169  and  _170
REMARK   63  A    between atoms: _173  and  _175
REMARK   64  A    between atoms: _175  and  _176
REMARK   65  A    between atoms: _175  and  _178
REMARK   66  A    between atoms: _178  and  _179
REMARK   67  A    between atoms: _184  and  _186
REMARK   68  A    between atoms: _186  and  _187
REMARK   69  A    between atoms: _186  and  _189
REMARK   70  A    between atoms: _189  and  _190
REMARK   71  A    between atoms: _190  and  _191
REMARK   72  A    between atoms: _196  and  _198
REMARK   73  A    between atoms: _198  and  _199
REMARK   74  A    between atoms: _198  and  _201
REMARK   75  A    between atoms: _201  and  _202
REMARK   76  A    between atoms: _205  and  _207
REMARK   77  A    between atoms: _207  and  _208
REMARK   78  A    between atoms: _207  and  _210
REMARK   79  A    between atoms: _210  and  _211
REMARK   80  A    between atoms: _216  and  _218
REMARK   81  A    between atoms: _218  and  _219
REMARK   82  A    between atoms: _222  and  _224
REMARK   83  A    between atoms: _224  and  _225
REMARK   84  A    between atoms: _227  and  _229
REMARK   85  A    between atoms: _229  and  _230
REMARK   86  A    between atoms: _232  and  _234
REMARK   87  A    between atoms: _234  and  _235
REMARK   88  A    between atoms: _234  and  _237
REMARK   89  A    between atoms: _237  and  _238
REMARK   90  A    between atoms: _241  and  _243
REMARK   91  A    between atoms: _243  and  _244
REMARK   92  A    between atoms: _243  and  _246
REMARK   93  A    between atoms: _246  and  _247
REMARK   94  A    between atoms: _250  and  _252
REMARK   95  A    between atoms: _252  and  _253
REMARK   96  A    between atoms: _252  and  _255
REMARK   97  A    between atoms: _255  and  _256
REMARK   98  A    between atoms: _261  and  _263
REMARK   99  A    between atoms: _263  and  _264
REMARK  100  A    between atoms: _263  and  _266
REMARK  101  A    between atoms: _269  and  _271
REMARK  102  A    between atoms: _271  and  _272
REMARK  103  A    between atoms: _271  and  _274
REMARK  104  A    between atoms: _274  and  _275
REMARK  105  A    between atoms: _280  and  _282
REMARK  106  A    between atoms: _282  and  _283
REMARK  107  A    between atoms: _282  and  _285
REMARK  108  A    between atoms: _285  and  _286
REMARK  109  A    between atoms: _289  and  _291
REMARK  110  A    between atoms: _291  and  _292
REMARK  111  A    between atoms: _291  and  _294
REMARK  112  A    between atoms: _294  and  _295
REMARK  113  A    between atoms: _297  and  _299
REMARK  114  A    between atoms: _299  and  _300
REMARK  115  A    between atoms: _299  and  _302
REMARK  116  A    between atoms: _302  and  _303
REMARK  117  A    between atoms: _308  and  _310
REMARK  118  A    between atoms: _310  and  _311
REMARK  119  A    between atoms: _310  and  _313
REMARK  120  A    between atoms: _316  and  _318
REMARK  121  A    between atoms: _318  and  _319
REMARK  122  A    between atoms: _318  and  _321
REMARK  123  A    between atoms: _321  and  _322
REMARK  124  A    between atoms: _327  and  _329
REMARK  125  A    between atoms: _329  and  _330
REMARK  126  A    between atoms: _333  and  _335
REMARK  127  A    between atoms: _335  and  _336
REMARK  128  A    between atoms: _335  and  _338
REMARK  129  A    between atoms: _338  and  _339
REMARK  130  A    between atoms: _339  and  _340
REMARK  131  A    between atoms: _340  and  _341
REMARK  132  A    between atoms: _350  and  _352
REMARK  133  A    between atoms: _352  and  _353
REMARK  134  A    between atoms: _352  and  _355
REMARK  135  A    between atoms: _355  and  _356
REMARK  136  A    between atoms: _356  and  _357
REMARK  137  A    between atoms: _360  and  _362
REMARK  138  A    between atoms: _362  and  _363
REMARK  139  A    between atoms: _362  and  _365
REMARK  140  A    between atoms: _365  and  _366
REMARK  141  A    between atoms: _372  and  _374
REMARK  142  A    between atoms: _374  and  _375
REMARK  143  A    between atoms: _374  and  _377
REMARK  144  A    between atoms: _377  and  _378
REMARK  145  A    between atoms: _378  and  _379
REMARK  146  A    between atoms: _379  and  _380
REMARK  147  A    between atoms: _389  and  _391
REMARK  148  A    between atoms: _391  and  _392
REMARK  149  A    between atoms: _391  and  _394
REMARK  150  A    between atoms: _394  and  _395
REMARK  151  A    between atoms: _395  and  _396
REMARK  152  A    between atoms: _396  and  _397
REMARK  153  A    between atoms: _406  and  _408
REMARK  154  A    between atoms: _408  and  _409
REMARK  155  A    between atoms: _408  and  _411
REMARK  156  A    between atoms: _411  and  _412
REMARK  157  A    between atoms: _417  and  _419
REMARK  158  A    between atoms: _419  and  _420
REMARK  159  A    between atoms: _419  and  _422
REMARK  160  A    between atoms: _422  and  _423
REMARK  161  A    between atoms: _426  and  _428
REMARK  162  A    between atoms: _428  and  _429
REMARK  163  A    between atoms: _428  and  _431
REMARK  164  A    between atoms: _434  and  _436
REMARK  165  A    between atoms: _436  and  _437
REMARK  166  A    between atoms: _439  and  _441
REMARK  167  A    between atoms: _441  and  _442
REMARK  168  A    between atoms: _441  and  _444
REMARK  169  A    between atoms: _444  and  _445
REMARK  170  A    between atoms: _448  and  _450
REMARK  171  A    between atoms: _450  and  _451
REMARK  172  A    between atoms: _453  and  _455
REMARK  173  A    between atoms: _455  and  _456
REMARK  174  A    between atoms: _455  and  _458
REMARK  175  A    between atoms: _458  and  _459
REMARK  176  A    between atoms: _464  and  _465
REMARK  177  A    between atoms: _467  and  _469
REMARK  178  A    between atoms: _469  and  _470
REMARK  179  A    between atoms: _469  and  _472
REMARK  180  A    between atoms: _472  and  _473
REMARK  181  A    between atoms: _478  and  _480
REMARK  182  A    between atoms: _480  and  _481
REMARK  183  A    between atoms: _480  and  _483
REMARK  184  A    between atoms: _486  and  _488
REMARK  185  A    between atoms: _488  and  _489
REMARK  186  A    between atoms: _492  and  _494
REMARK  187  A    between atoms: _494  and  _495
REMARK  188  A    between atoms: _494  and  _497
REMARK  189  A    between atoms: _497  and  _498
REMARK  190  A    between atoms: _498  and  _499
REMARK  191  A    between atoms: _499  and  _500
REMARK  192  A    between atoms: _509  and  _511
REMARK  193  A    between atoms: _511  and  _512
REMARK  194  A    between atoms: _511  and  _514
REMARK  195  A    between atoms: _514  and  _515
REMARK  196  A    between atoms: _518  and  _520
REMARK  197  A    between atoms: _520  and  _521
REMARK  198  A    between atoms: _524  and  _526
REMARK  199  A    between atoms: _526  and  _527
REMARK  200  A    between atoms: _530  and  _532
REMARK  201  A    between atoms: _532  and  _533
REMARK  202  A    between atoms: _532  and  _535
REMARK  203  A    between atoms: _535  and  _536
REMARK  204  A    between atoms: _536  and  _537
REMARK                            x       y       z     vdW  Elec       q    Type
REMARK                         _______ _______ _______ _____ _____    ______ ____
ROOT
ATOM      1  C   GLY A   4      -0.621  39.564  75.790  0.00  0.00    +0.243 C 
ATOM      2  N   LEU A   5      -0.185  40.448  76.684  0.00  0.00    -0.297 N 
ATOM      3  H   LEU A   5      -0.686  40.555  77.589  0.00  0.00    +0.150 HD
ATOM      4  O   GLY A   4      -0.075  39.399  74.677  0.00  0.00    -0.273 OA
ENDROOT
BRANCH   2   5
ATOM      5  CA  LEU A   5       0.978  41.261  76.409  0.00  0.00    +0.149 C 
BRANCH   5   6
ATOM      6  C   LEU A   5       2.256  40.434  76.234  0.00  0.00    +0.241 C 
ATOM      7  N   THR A   6       2.236  39.212  76.752  0.00  0.00    -0.295 N 
ATOM      8  H   THR A   6       1.401  38.900  77.288  0.00  0.00    +0.150 HD
ATOM      9  O   LEU A   5       3.230  40.886  75.608  0.00  0.00    -0.273 OA
BRANCH   7  10
ATOM     10  CA  THR A   6       3.347  38.307  76.588  0.00  0.00    +0.176 C 
BRANCH  10  11
ATOM     11  C   THR A   6       3.720  38.181  75.156  0.00  0.00    +0.243 C 
ATOM     12  O   THR A   6       4.906  38.117  74.843  0.00  0.00    -0.273 OA
ATOM     13  N   HIS A   7       2.707  38.143  74.288  0.00  0.00    -0.298 N 
ATOM     14  H   HIS A   7       1.746  38.347  74.629  0.00  0.00    +0.150 HD
BRANCH  13  15
ATOM     15  CA  HIS A   7       2.902  37.826  72.879  0.00  0.00    +0.143 C 
BRANCH  15  16
ATOM     16  C   HIS A   7       3.048  38.993  71.948  0.00  0.00    +0.227 C 
ATOM     17  O   HIS A   7       3.392  38.816  70.790  0.00  0.00    -0.286 OA
ENDBRANCH  15  16
BRANCH  15  18
ATOM     18  CB  HIS A   7       1.753  36.976  72.387  0.00  0.00    +0.075 C 
BRANCH  18  19
ATOM     19  CG  HIS A   7       1.348  35.951  73.355  0.00  0.00    +0.082 A 
ATOM     20  CD2 HIS A   7       0.208  35.840  74.145  0.00  0.00    +0.115 A 
ATOM     21  NE2 HIS A   7       0.316  34.707  74.847  0.00  0.00    -0.221 NA
ATOM     22  CE1 HIS A   7       1.486  34.118  74.547  0.00  0.00    +0.199 A 
ATOM     23  ND1 HIS A   7       2.116  34.879  73.620  0.00  0.00    -0.227 NA
ENDBRANCH  18  19
ENDBRANCH  15  18
ENDBRANCH  13  15
ENDBRANCH  10  11
BRANCH  10  24
ATOM     24  CB  THR A   6       3.013  36.876  77.026  0.00  0.00    +0.137 C 
ATOM     25  CG2 THR A   6       4.333  36.045  77.056  0.00  0.00    +0.034 C 
BRANCH  24  26
ATOM     26  OG1 THR A   6       2.411  36.894  78.332  0.00  0.00    -0.382 OA
ATOM     27  HG1 THR A   6       1.580  37.431  78.303  0.00  0.00    +0.210 HD
ENDBRANCH  24  26
ENDBRANCH  10  24
ENDBRANCH   7  10
ENDBRANCH   5   6
BRANCH   5  28
ATOM     28  CB  LEU A   5       1.157  42.336  77.469  0.00  0.00    +0.029 C 
BRANCH  28  29
ATOM     29  CG  LEU A   5      -0.035  43.246  77.596  0.00  0.00    +0.002 C 
ATOM     30  CD2 LEU A   5       0.404  44.317  78.570  0.00  0.00    +0.000 C 
ATOM     31  CD1 LEU A   5      -0.414  43.831  76.245  0.00  0.00    +0.000 C 
ENDBRANCH  28  29
ENDBRANCH   5  28
ENDBRANCH   2   5
BRANCH   1  32
ATOM     32  CA  GLY A   4      -1.861  38.758  76.170  0.00  0.00    +0.176 C 
BRANCH  32  35
ATOM     33  C   GLY A   3      -1.041  37.864  78.272  0.00  0.00    +0.243 C 
ATOM     34  O   GLY A   3      -0.020  37.472  77.732  0.00  0.00    -0.273 OA
ATOM     35  N   GLY A   4      -2.006  38.487  77.601  0.00  0.00    -0.295 N 
ATOM     36  H   GLY A   4      -2.870  38.784  78.097  0.00  0.00    +0.150 HD
BRANCH  33  37
ATOM     37  CA  GLY A   3      -1.260  37.670  79.764  0.00  0.00    +0.176 C 
BRANCH  37  39
ATOM     38  C   ALA A   2       0.449  39.166  80.554  0.00  0.00    +0.241 C 
ATOM     39  N   GLY A   3      -0.059  37.945  80.526  0.00  0.00    -0.295 N 
ATOM     40  H   GLY A   3       0.406  37.179  81.054  0.00  0.00    +0.150 HD
ATOM     41  O   ALA A   2      -0.071  40.103  79.982  0.00  0.00    -0.273 OA
BRANCH  38  42
ATOM     42  CA  ALA A   2       1.731  39.364  81.334  0.00  0.00    +0.149 C 
ATOM     43  CB  ALA A   2       2.849  39.733  80.378  0.00  0.00    +0.031 C 
BRANCH  42  46
ATOM     44  C   ASN A   1       1.498  37.990  83.341  0.00  0.00    +0.239 C 
ATOM     45  O   ASN A   1       0.569  38.660  83.758  0.00  0.00    -0.274 OA
ATOM     46  N   ALA A   2       2.092  38.205  82.169  0.00  0.00    -0.297 N 
ATOM     47  H   ALA A   2       2.823  37.544  81.837  0.00  0.00    +0.150 HD
BRANCH  44  48
ATOM     48  CA  ASN A   1       2.034  36.886  84.181  0.00  0.00    +0.154 C 
BRANCH  48  49
ATOM     49  N   ASN A   1       2.905  37.535  85.164  0.00  0.00    -0.238 NA
ATOM     50  H   ASN A   1       2.504  38.166  85.887  0.00  0.00    +0.142 HD
ENDBRANCH  48  49
BRANCH  48  51
ATOM     51  CB  ASN A   1       0.908  36.105  84.864  0.00  0.00    +0.111 C 
BRANCH  51  52
ATOM     52  CG  ASN A   1      -0.009  35.410  83.885  0.00  0.00    +0.221 C 
ATOM     53  ND2 ASN A   1      -0.781  34.460  84.397  0.00  0.00    -0.329 N 
ATOM     54 HD21 ASN A   1      -0.733  34.242  85.413  0.00  0.00    +0.145 HD
ATOM     55 HD22 ASN A   1      -1.434  33.933  83.783  0.00  0.00    +0.145 HD
ATOM     56  OD1 ASN A   1      -0.033  35.704  82.678  0.00  0.00    -0.275 OA
ENDBRANCH  51  52
ENDBRANCH  48  51
ENDBRANCH  44  48
ENDBRANCH  42  46
ENDBRANCH  38  42
ENDBRANCH  37  39
ENDBRANCH  33  37
ENDBRANCH  32  35
ENDBRANCH   1  32
TORSDOF 22
REMARK  Name = ../refined-set-2016/4kiu/4kiu_pocket.pdb
REMARK  204 active torsions:
REMARK  status: ('A' for Active; 'I' for Inactive)
REMARK    1  A    between atoms: _1  and  _3
REMARK    2  A    between atoms: _3  and  _4
REMARK    3  A    between atoms: _3  and  _6
REMARK    4  A    between atoms: _6  and  _7
REMARK    5  A    between atoms: _12  and  _14
REMARK    6  A    between atoms: _14  and  _15
REMARK    7  A    between atoms: _18  and  _19
REMARK    8  A    between atoms: _24  and  _26
REMARK    9  A    between atoms: _26  and  _27
REMARK   10  A    between atoms: _26  and  _29
REMARK   11  A    between atoms: _29  and  _30
REMARK   12  A    between atoms: _35  and  _37
REMARK   13  A    between atoms: _37  and  _38
REMARK   14  A    between atoms: _37  and  _40
REMARK   15  A    between atoms: _40  and  _41
REMARK   16  A    between atoms: _44  and  _46
REMARK   17  A    between atoms: _46  and  _47
REMARK   18  A    between atoms: _49  and  _51
REMARK   19  A    between atoms: _51  and  _52
REMARK   20  A    between atoms: _51  and  _54
REMARK   21  A    between atoms: _54  and  _55
REMARK   22  A    between atoms: _55  and  _56
REMARK   23  A    between atoms: _56  and  _57
REMARK   24  A    between atoms: _66  and  _68
REMARK   25  A    between atoms: _68  and  _69
REMARK   26  A    between atoms: _68  and  _71
REMARK   27  A    between atoms: _71  and  _72
REMARK   28  A    between atoms: _75  and  _77
REMARK   29  A    between atoms: _77  and  _78
REMARK   30  A    between atoms: _82  and  _83
REMARK   31  A    between atoms: _82  and  _85
REMARK   32  A    between atoms: _85  and  _86
REMARK   33  A    between atoms: _86  and  _87
REMARK   34  A    between atoms: _87  and  _88
REMARK   35  A    between atoms: _97  and  _99
REMARK   36  A    between atoms: _99  and  _100
REMARK   37  A    between atoms: _99  and  _102
REMARK   38  A    between atoms: _102  and  _103
REMARK   39  A    between atoms: _103  and  _104
REMARK   40  A    between atoms: _104  and  _105
REMARK   41  A    between atoms: _114  and  _116
REMARK   42  A    between atoms: _116  and  _117
REMARK   43  A    between atoms: _116  and  _119
REMARK   44  A    between atoms: _119  and  _120
REMARK   45  A    between atoms: _120  and  _121
REMARK   46  A    between atoms: _125  and  _126
REMARK   47  A    between atoms: _131  and  _133
REMARK   48  A    between atoms: _133  and  _134
REMARK   49  A    between atoms: _137  and  _139
REMARK   50  A    between atoms: _139  and  _140
REMARK   51  A    between atoms: _139  and  _142
REMARK   52  A    between atoms: _145  and  _147
REMARK   53  A    between atoms: _147  and  _148
REMARK   54  A    between atoms: _147  and  _150
REMARK   55  A    between atoms: _150  and  _151
REMARK   56  A    between atoms: _156  and  _157
REMARK   57  A    between atoms: _159  and  _161
REMARK   58  A    between atoms: _161  and  _162
REMARK   59  A    between atoms: _164  and  _166
REMARK   60  A    between atoms: _166  and  _167
REMARK   61  A    between atoms: _166  and  _169
REMARK   62  A    between atoms: _169  and  _170
REMARK   63  A    between atoms: _173  and  _175
REMARK   64  A    between atoms: _175  and  _176
REMARK   65  A    between atoms: _175  and  _178
REMARK   66  A    between atoms: _178  and  _179
REMARK   67  A    between atoms: _184  and  _186
REMARK   68  A    between atoms: _186  and  _187
REMARK   69  A    between atoms: _186  and  _189
REMARK   70  A    between atoms: _189  and  _190
REMARK   71  A    between atoms: _190  and  _191
REMARK   72  A    between atoms: _196  and  _198
REMARK   73  A    between atoms: _198  and  _199
REMARK   74  A    between atoms: _198  and  _201
REMARK   75  A    between atoms: _201  and  _202
REMARK   76  A    between atoms: _205  and  _207
REMARK   77  A    between atoms: _207  and  _208
REMARK   78  A    between atoms: _207  and  _210
REMARK   79  A    between atoms: _210  and  _211
REMARK   80  A    between atoms: _216  and  _218
REMARK   81  A    between atoms: _218  and  _219
REMARK   82  A    between atoms: _222  and  _224
REMARK   83  A    between atoms: _224  and  _225
REMARK   84  A    between atoms: _227  and  _229
REMARK   85  A    between atoms: _229  and  _230
REMARK   86  A    between atoms: _232  and  _234
REMARK   87  A    between atoms: _234  and  _235
REMARK   88  A    between atoms: _234  and  _237
REMARK   89  A    between atoms: _237  and  _238
REMARK   90  A    between atoms: _241  and  _243
REMARK   91  A    between atoms: _243  and  _244
REMARK   92  A    between atoms: _243  and  _246
REMARK   93  A    between atoms: _246  and  _247
REMARK   94  A    between atoms: _250  and  _252
REMARK   95  A    between atoms: _252  and  _253
REMARK   96  A    between atoms: _252  and  _255
REMARK   97  A    between atoms: _255  and  _256
REMARK   98  A    between atoms: _261  and  _263
REMARK   99  A    between atoms: _263  and  _264
REMARK  100  A    between atoms: _263  and  _266
REMARK  101  A    between atoms: _269  and  _271
REMARK  102  A    between atoms: _271  and  _272
REMARK  103  A    between atoms: _271  and  _274
REMARK  104  A    between atoms: _274  and  _275
REMARK  105  A    between atoms: _280  and  _282
REMARK  106  A    between atoms: _282  and  _283
REMARK  107  A    between atoms: _282  and  _285
REMARK  108  A    between atoms: _285  and  _286
REMARK  109  A    between atoms: _289  and  _291
REMARK  110  A    between atoms: _291  and  _292
REMARK  111  A    between atoms: _291  and  _294
REMARK  112  A    between atoms: _294  and  _295
REMARK  113  A    between atoms: _297  and  _299
REMARK  114  A    between atoms: _299  and  _300
REMARK  115  A    between atoms: _299  and  _302
REMARK  116  A    between atoms: _302  and  _303
REMARK  117  A    between atoms: _308  and  _310
REMARK  118  A    between atoms: _310  and  _311
REMARK  119  A    between atoms: _310  and  _313
REMARK  120  A    between atoms: _316  and  _318
REMARK  121  A    between atoms: _318  and  _319
REMARK  122  A    between atoms: _318  and  _321
REMARK  123  A    between atoms: _321  and  _322
REMARK  124  A    between atoms: _327  and  _329
REMARK  125  A    between atoms: _329  and  _330
REMARK  126  A    between atoms: _333  and  _335
REMARK  127  A    between atoms: _335  and  _336
REMARK  128  A    between atoms: _335  and  _338
REMARK  129  A    between atoms: _338  and  _339
REMARK  130  A    between atoms: _339  and  _340
REMARK  131  A    between atoms: _340  and  _341
REMARK  132  A    between atoms: _350  and  _352
REMARK  133  A    between atoms: _352  and  _353
REMARK  134  A    between atoms: _352  and  _355
REMARK  135  A    between atoms: _355  and  _356
REMARK  136  A    between atoms: _356  and  _357
REMARK  137  A    between atoms: _360  and  _362
REMARK  138  A    between atoms: _362  and  _363
REMARK  139  A    between atoms: _362  and  _365
REMARK  140  A    between atoms: _365  and  _366
REMARK  141  A    between atoms: _372  and  _374
REMARK  142  A    between atoms: _374  and  _375
REMARK  143  A    between atoms: _374  and  _377
REMARK  144  A    between atoms: _377  and  _378
REMARK  145  A    between atoms: _378  and  _379
REMARK  146  A    between atoms: _379  and  _380
REMARK  147  A    between atoms: _389  and  _391
REMARK  148  A    between atoms: _391  and  _392
REMARK  149  A    between atoms: _391  and  _394
REMARK  150  A    between atoms: _394  and  _395
REMARK  151  A    between atoms: _395  and  _396
REMARK  152  A    between atoms: _396  and  _397
REMARK  153  A    between atoms: _406  and  _408
REMARK  154  A    between atoms: _408  and  _409
REMARK  155  A    between atoms: _408  and  _411
REMARK  156  A    between atoms: _411  and  _412
REMARK  157  A    between atoms: _417  and  _419
REMARK  158  A    between atoms: _419  and  _420
REMARK  159  A    between atoms: _419  and  _422
REMARK  160  A    between atoms: _422  and  _423
REMARK  161  A    between atoms: _426  and  _428
REMARK  162  A    between atoms: _428  and  _429
REMARK  163  A    between atoms: _428  and  _431
REMARK  164  A    between atoms: _434  and  _436
REMARK  165  A    between atoms: _436  and  _437
REMARK  166  A    between atoms: _439  and  _441
REMARK  167  A    between atoms: _441  and  _442
REMARK  168  A    between atoms: _441  and  _444
REMARK  169  A    between atoms: _444  and  _445
REMARK  170  A    between atoms: _448  and  _450
REMARK  171  A    between atoms: _450  and  _451
REMARK  172  A    between atoms: _453  and  _455
REMARK  173  A    between atoms: _455  and  _456
REMARK  174  A    between atoms: _455  and  _458
REMARK  175  A    between atoms: _458  and  _459
REMARK  176  A    between atoms: _464  and  _465
REMARK  177  A    between atoms: _467  and  _469
REMARK  178  A    between atoms: _469  and  _470
REMARK  179  A    between atoms: _469  and  _472
REMARK  180  A    between atoms: _472  and  _473
REMARK  181  A    between atoms: _478  and  _480
REMARK  182  A    between atoms: _480  and  _481
REMARK  183  A    between atoms: _480  and  _483
REMARK  184  A    between atoms: _486  and  _488
REMARK  185  A    between atoms: _488  and  _489
REMARK  186  A    between atoms: _492  and  _494
REMARK  187  A    between atoms: _494  and  _495
REMARK  188  A    between atoms: _494  and  _497
REMARK  189  A    between atoms: _497  and  _498
REMARK  190  A    between atoms: _498  and  _499
REMARK  191  A    between atoms: _499  and  _500
REMARK  192  A    between atoms: _509  and  _511
REMARK  193  A    between atoms: _511  and  _512
REMARK  194  A    between atoms: _511  and  _514
REMARK  195  A    between atoms: _514  and  _515
REMARK  196  A    between atoms: _518  and  _520
REMARK  197  A    between atoms: _520  and  _521
REMARK  198  A    between atoms: _524  and  _526
REMARK  199  A    between atoms: _526  and  _527
REMARK  200  A    between atoms: _530  and  _532
REMARK  201  A    between atoms: _532  and  _533
REMARK  202  A    between atoms: _532  and  _535
REMARK  203  A    between atoms: _535  and  _536
REMARK  204  A    between atoms: _536  and  _537
REMARK                            x       y       z     vdW  Elec       q    Type
REMARK                         _______ _______ _______ _____ _____    ______ ____
ROOT
ATOM      1  CA  VAL A   6      -0.232  28.384  76.018  0.00  0.00    +0.149 C 
ENDROOT
BRANCH   1   3
ATOM      2  C   ASN A   5      -0.885  26.485  77.433  0.00  0.00    +0.241 C 
ATOM      3  N   VAL A   6      -0.157  27.574  77.251  0.00  0.00    -0.297 N 
ATOM      4  H   VAL A   6       0.494  27.872  78.006  0.00  0.00    +0.150 HD
ATOM      5  O   ASN A   5      -1.682  26.094  76.593  0.00  0.00    -0.273 OA
BRANCH   2   6
ATOM      6  CA  ASN A   5      -0.701  25.765  78.755  0.00  0.00    +0.158 C 
BRANCH   6   9
ATOM      7  C   SER A   4      -1.749  27.264  80.345  0.00  0.00    +0.243 C 
ATOM      8  O   SER A   4      -0.718  27.866  80.521  0.00  0.00    -0.273 OA
ATOM      9  N   ASN A   5      -1.819  26.215  79.549  0.00  0.00    -0.297 N 
ATOM     10  H   ASN A   5      -2.716  25.691  79.491  0.00  0.00    +0.150 HD
BRANCH   7  11
ATOM     11  CA  SER A   4      -3.027  27.690  81.060  0.00  0.00    +0.178 C 
BRANCH  11  14
ATOM     12  C   ILE A   3      -2.223  28.386  83.312  0.00  0.00    +0.241 C 
ATOM     13  O   ILE A   3      -2.028  27.235  83.695  0.00  0.00    -0.273 OA
ATOM     14  N   SER A   4      -2.708  28.692  82.100  0.00  0.00    -0.295 N 
ATOM     15  H   SER A   4      -2.870  29.695  81.878  0.00  0.00    +0.150 HD
BRANCH  12  16
ATOM     16  CA  ILE A   3      -1.884  29.538  84.260  0.00  0.00    +0.149 C 
BRANCH  16  18
ATOM     17  C   HIS A   2       0.233  30.220  83.257  0.00  0.00    +0.241 C 
ATOM     18  N   ILE A   3      -1.005  30.490  83.638  0.00  0.00    -0.297 N 
ATOM     19  H   ILE A   3      -1.365  31.452  83.477  0.00  0.00    +0.150 HD
ATOM     20  O   HIS A   2       0.819  29.159  83.483  0.00  0.00    -0.273 OA
BRANCH  17  21
ATOM     21  CA  HIS A   2       0.925  31.339  82.603  0.00  0.00    +0.155 C 
BRANCH  21  24
ATOM     22  C   VAL A   1       2.746  32.495  83.642  0.00  0.00    +0.238 C 
ATOM     23  O   VAL A   1       2.280  33.600  83.320  0.00  0.00    -0.274 OA
ATOM     24  N   HIS A   2       2.212  31.358  83.232  0.00  0.00    -0.297 N 
ATOM     25  H   HIS A   2       2.732  30.467  83.367  0.00  0.00    +0.150 HD
BRANCH  22  26
ATOM     26  CA  VAL A   1       4.005  32.382  84.490  0.00  0.00    +0.145 C 
BRANCH  26  27
ATOM     27  CB  VAL A   1       3.649  32.454  86.005  0.00  0.00    +0.025 C 
ATOM     28  CG2 VAL A   1       4.854  32.124  86.891  0.00  0.00    +0.002 C 
ATOM     29  CG1 VAL A   1       2.454  31.570  86.382  0.00  0.00    +0.002 C 
ENDBRANCH  26  27
BRANCH  26  30
ATOM     30  N   VAL A   1       4.948  33.433  84.096  0.00  0.00    -0.238 NA
ATOM     31  H   VAL A   1       4.613  34.415  84.035  0.00  0.00    +0.142 HD
ENDBRANCH  26  30
ENDBRANCH  22  26
ENDBRANCH  21  24
BRANCH  21  32
ATOM     32  CB  HIS A   2       1.021  31.146  81.091  0.00  0.00    +0.076 C 
BRANCH  32  33
ATOM     33  CG  HIS A   2       1.901  32.178  80.416  0.00  0.00    +0.082 A 
ATOM     34  ND1 HIS A   2       1.515  33.451  80.247  0.00  0.00    -0.227 NA
ATOM     35  CE1 HIS A   2       2.519  34.155  79.679  0.00  0.00    +0.199 A 
ATOM     36  NE2 HIS A   2       3.550  33.319  79.477  0.00  0.00    -0.221 NA
ATOM     37  CD2 HIS A   2       3.212  32.100  79.937  0.00  0.00    +0.115 A 
ENDBRANCH  32  33
ENDBRANCH  21  32
ENDBRANCH  17  21
ENDBRANCH  16  18
BRANCH  16  38
ATOM     38  CB  ILE A   3      -3.147  30.274  84.754  0.00  0.00    +0.027 C 
ATOM     39  CG2 ILE A   3      -4.215  29.282  85.161  0.00  0.00    +0.002 C 
BRANCH  38  40
ATOM     40  CG1 ILE A   3      -2.741  31.243  85.870  0.00  0.00    +0.002 C 
ATOM     41  CD1 ILE A   3      -3.619  32.458  86.003  0.00  0.00    +0.000 C 
ENDBRANCH  38  40
ENDBRANCH  16  38
ENDBRANCH  12  16
ENDBRANCH  11  14
BRANCH  11  42
ATOM     42  CB  SER A   4      -4.020  28.247  80.017  0.00  0.00    +0.166 C 
BRANCH  42  43
ATOM     43  OG  SER A   4      -3.412  29.209  79.106  0.00  0.00    -0.380 OA
ATOM     44  H   SER A   4      -3.059  29.975  79.624  0.00  0.00    +0.211 HD
ENDBRANCH  42  43
ENDBRANCH  11  42
ENDBRANCH   7  11
ENDBRANCH   6   9
BRANCH   6  45
ATOM     45  CB  ASN A   5      -0.779  24.235  78.593  0.00  0.00    +0.114 C 
BRANCH  45  46
ATOM     46  CG  ASN A   5       0.356  23.658  77.758  0.00  0.00    +0.222 C 
ATOM     47  ND2 ASN A   5       0.466  22.331  77.741  0.00  0.00    -0.329 N 
ATOM     48 HD21 ASN A   5      -0.211  21.746  78.271  0.00  0.00    +0.145 HD
ATOM     49 HD22 ASN A   5       1.229  21.879  77.197  0.00  0.00    +0.145 HD
ATOM     50  OD1 ASN A   5       1.131  24.383  77.148  0.00  0.00    -0.275 OA
ENDBRANCH  45  46
ENDBRANCH   6  45
ENDBRANCH   2   6
ENDBRANCH   1   3
BRANCH   1  51
ATOM     51  C   VAL A   6       0.150  27.628  74.719  0.00  0.00    +0.241 C 
ATOM     52  N   HIS A   7       0.787  26.481  74.863  0.00  0.00    -0.297 N 
ATOM     53  H   HIS A   7       0.978  26.124  75.821  0.00  0.00    +0.150 HD
ATOM     54  O   VAL A   6      -0.171  28.064  73.602  0.00  0.00    -0.273 OA
BRANCH  52  55
ATOM     55  CA  HIS A   7       1.221  25.717  73.736  0.00  0.00    +0.155 C 
BRANCH  55  56
ATOM     56  C   HIS A   7       0.205  24.782  73.240  0.00  0.00    +0.241 C 
ATOM     57  N   ALA A   8      -0.848  24.589  74.020  0.00  0.00    -0.297 N 
ATOM     58  H   ALA A   8      -0.900  25.079  74.936  0.00  0.00    +0.150 HD
ATOM     59  O   HIS A   7       0.380  24.207  72.171  0.00  0.00    -0.273 OA
BRANCH  57  60
ATOM     60  CA  ALA A   8      -1.936  23.704  73.622  0.00  0.00    +0.149 C 
ATOM     61  CB  ALA A   8      -2.422  22.910  74.827  0.00  0.00    +0.031 C 
BRANCH  60  62
ATOM     62  C   ALA A   8      -3.071  24.494  73.014  0.00  0.00    +0.241 C 
ATOM     63  O   ALA A   8      -4.185  24.019  72.923  0.00  0.00    -0.273 OA
ATOM     64  N   ARG A   9      -2.815  25.725  72.607  0.00  0.00    -0.297 N 
ATOM     65  H   ARG A   9      -1.841  26.089  72.637  0.00  0.00    +0.150 HD
BRANCH  64  66
ATOM     66  CA  ARG A   9      -3.901  26.580  72.112  0.00  0.00    +0.149 C 
BRANCH  66  67
ATOM     67  C   ARG A   9      -3.556  27.136  70.722  0.00  0.00    +0.241 C 
ATOM     68  N   GLU A  10      -4.035  28.326  70.384  0.00  0.00    -0.298 N 
ATOM     69  H   GLU A  10      -4.649  28.846  71.043  0.00  0.00    +0.150 HD
ATOM     70  O   ARG A   9      -2.829  26.477  69.970  0.00  0.00    -0.273 OA
BRANCH  68  71
ATOM     71  CA  GLU A  10      -3.702  28.905  69.091  0.00  0.00    +0.137 C 
BRANCH  71  72
ATOM     72  C   GLU A  10      -2.208  29.024  68.879  0.00  0.00    +0.227 C 
ATOM     73  O   GLU A  10      -1.453  29.185  69.822  0.00  0.00    -0.286 OA
ENDBRANCH  71  72
BRANCH  71  74
ATOM     74  CB  GLU A  10      -4.313  30.302  68.909  0.00  0.00    +0.039 C 
BRANCH  74  75
ATOM     75  CG  GLU A  10      -5.812  30.390  69.115  0.00  0.00    +0.116 C 
BRANCH  75  76
ATOM     76  CD  GLU A  10      -6.180  30.897  70.493  0.00  0.00    +0.365 C 
ATOM     77  OE2 GLU A  10      -5.474  30.602  71.480  0.00  0.00    -0.246 OA
ATOM     78  OE1 GLU A  10      -7.204  31.599  70.600  0.00  0.00    -0.246 OA
ENDBRANCH  75  76
ENDBRANCH  74  75
ENDBRANCH  71  74
ENDBRANCH  68  71
ENDBRANCH  66  67
BRANCH  66  79
ATOM     79  CB  ARG A   9      -4.221  27.649  73.146  0.00  0.00    +0.033 C 
BRANCH  79  80
ATOM     80  CG  ARG A   9      -4.790  27.000  74.406  0.00  0.00    +0.045 C 
BRANCH  80  81
ATOM     81  CD  ARG A   9      -4.916  27.927  75.616  0.00  0.00    +0.174 C 
BRANCH  81  82
ATOM     82  NE  ARG A   9      -5.645  29.169  75.305  0.00  0.00    -0.265 N 
ATOM     83  CZ  ARG A   9      -5.716  30.224  76.113  0.00  0.00    +0.342 C 
ATOM     84  NH2 ARG A   9      -5.127  30.208  77.300  0.00  0.00    -0.292 N 
ATOM     85 HH21 ARG A   9      -5.189  31.039  77.923  0.00  0.00    +0.255 HD
ATOM     86 HH22 ARG A   9      -4.602  29.365  77.609  0.00  0.00    +0.255 HD
ATOM     87  NH1 ARG A   9      -6.353  31.303  75.738  0.00  0.00    -0.292 N 
ATOM     88 HH11 ARG A   9      -6.405  32.124  76.374  0.00  0.00    +0.255 HD
ATOM     89 HH12 ARG A   9      -6.808  31.340  74.803  0.00  0.00    +0.255 HD
ATOM     90  HE  ARG A   9      -6.138  29.225  74.391  0.00  0.00    +0.259 HD
ENDBRANCH  81  82
ENDBRANCH  80  81
ENDBRANCH  79  80
ENDBRANCH  66  79
ENDBRANCH  64  66
ENDBRANCH  60  62
ENDBRANCH  57  60
ENDBRANCH  55  56
BRANCH  55  91
ATOM     91  CB  HIS A   7       2.455  24.916  74.092  0.00  0.00    +0.076 C 
BRANCH  91  92
ATOM     92  CG  HIS A   7       3.629  25.768  74.359  0.00  0.00    +0.082 A 
ATOM     93  CD2 HIS A   7       4.298  26.055  75.543  0.00  0.00    +0.115 A 
ATOM     94  NE2 HIS A   7       5.294  26.922  75.238  0.00  0.00    -0.221 NA
ATOM     95  CE1 HIS A   7       5.265  27.154  73.915  0.00  0.00    +0.199 A 
ATOM     96  ND1 HIS A   7       4.236  26.460  73.390  0.00  0.00    -0.227 NA
ENDBRANCH  91  92
ENDBRANCH  55  91
ENDBRANCH  52  55
ENDBRANCH   1  51
BRANCH   1  97
ATOM     97  CB  VAL A   6       0.643  29.639  76.169  0.00  0.00    +0.027 C 
ATOM     98  CG2 VAL A   6       0.238  30.388  77.428  0.00  0.00    +0.002 C 
ATOM     99  CG1 VAL A   6       2.123  29.268  76.259  0.00  0.00    +0.002 C 
ENDBRANCH   1  97
TORSDOF 39
REMARK  Name = ../refined-set-2016/4kiu/4kiu_pocket.pdb
REMARK  204 active torsions:
REMARK  status: ('A' for Active; 'I' for Inactive)
REMARK    1  A    between atoms: _1  and  _3
REMARK    2  A    between atoms: _3  and  _4
REMARK    3  A    between atoms: _3  and  _6
REMARK    4  A    between atoms: _6  and  _7
REMARK    5  A    between atoms: _12  and  _14
REMARK    6  A    between atoms: _14  and  _15
REMARK    7  A    between atoms: _18  and  _19
REMARK    8  A    between atoms: _24  and  _26
REMARK    9  A    between atoms: _26  and  _27
REMARK   10  A    between atoms: _26  and  _29
REMARK   11  A    between atoms: _29  and  _30
REMARK   12  A    between atoms: _35  and  _37
REMARK   13  A    between atoms: _37  and  _38
REMARK   14  A    between atoms: _37  and  _40
REMARK   15  A    between atoms: _40  and  _41
REMARK   16  A    between atoms: _44  and  _46
REMARK   17  A    between atoms: _46  and  _47
REMARK   18  A    between atoms: _49  and  _51
REMARK   19  A    between atoms: _51  and  _52
REMARK   20  A    between atoms: _51  and  _54
REMARK   21  A    between atoms: _54  and  _55
REMARK   22  A    between atoms: _55  and  _56
REMARK   23  A    between atoms: _56  and  _57
REMARK   24  A    between atoms: _66  and  _68
REMARK   25  A    between atoms: _68  and  _69
REMARK   26  A    between atoms: _68  and  _71
REMARK   27  A    between atoms: _71  and  _72
REMARK   28  A    between atoms: _75  and  _77
REMARK   29  A    between atoms: _77  and  _78
REMARK   30  A    between atoms: _82  and  _83
REMARK   31  A    between atoms: _82  and  _85
REMARK   32  A    between atoms: _85  and  _86
REMARK   33  A    between atoms: _86  and  _87
REMARK   34  A    between atoms: _87  and  _88
REMARK   35  A    between atoms: _97  and  _99
REMARK   36  A    between atoms: _99  and  _100
REMARK   37  A    between atoms: _99  and  _102
REMARK   38  A    between atoms: _102  and  _103
REMARK   39  A    between atoms: _103  and  _104
REMARK   40  A    between atoms: _104  and  _105
REMARK   41  A    between atoms: _114  and  _116
REMARK   42  A    between atoms: _116  and  _117
REMARK   43  A    between atoms: _116  and  _119
REMARK   44  A    between atoms: _119  and  _120
REMARK   45  A    between atoms: _120  and  _121
REMARK   46  A    between atoms: _125  and  _126
REMARK   47  A    between atoms: _131  and  _133
REMARK   48  A    between atoms: _133  and  _134
REMARK   49  A    between atoms: _137  and  _139
REMARK   50  A    between atoms: _139  and  _140
REMARK   51  A    between atoms: _139  and  _142
REMARK   52  A    between atoms: _145  and  _147
REMARK   53  A    between atoms: _147  and  _148
REMARK   54  A    between atoms: _147  and  _150
REMARK   55  A    between atoms: _150  and  _151
REMARK   56  A    between atoms: _156  and  _157
REMARK   57  A    between atoms: _159  and  _161
REMARK   58  A    between atoms: _161  and  _162
REMARK   59  A    between atoms: _164  and  _166
REMARK   60  A    between atoms: _166  and  _167
REMARK   61  A    between atoms: _166  and  _169
REMARK   62  A    between atoms: _169  and  _170
REMARK   63  A    between atoms: _173  and  _175
REMARK   64  A    between atoms: _175  and  _176
REMARK   65  A    between atoms: _175  and  _178
REMARK   66  A    between atoms: _178  and  _179
REMARK   67  A    between atoms: _184  and  _186
REMARK   68  A    between atoms: _186  and  _187
REMARK   69  A    between atoms: _186  and  _189
REMARK   70  A    between atoms: _189  and  _190
REMARK   71  A    between atoms: _190  and  _191
REMARK   72  A    between atoms: _196  and  _198
REMARK   73  A    between atoms: _198  and  _199
REMARK   74  A    between atoms: _198  and  _201
REMARK   75  A    between atoms: _201  and  _202
REMARK   76  A    between atoms: _205  and  _207
REMARK   77  A    between atoms: _207  and  _208
REMARK   78  A    between atoms: _207  and  _210
REMARK   79  A    between atoms: _210  and  _211
REMARK   80  A    between atoms: _216  and  _218
REMARK   81  A    between atoms: _218  and  _219
REMARK   82  A    between atoms: _222  and  _224
REMARK   83  A    between atoms: _224  and  _225
REMARK   84  A    between atoms: _227  and  _229
REMARK   85  A    between atoms: _229  and  _230
REMARK   86  A    between atoms: _232  and  _234
REMARK   87  A    between atoms: _234  and  _235
REMARK   88  A    between atoms: _234  and  _237
REMARK   89  A    between atoms: _237  and  _238
REMARK   90  A    between atoms: _241  and  _243
REMARK   91  A    between atoms: _243  and  _244
REMARK   92  A    between atoms: _243  and  _246
REMARK   93  A    between atoms: _246  and  _247
REMARK   94  A    between atoms: _250  and  _252
REMARK   95  A    between atoms: _252  and  _253
REMARK   96  A    between atoms: _252  and  _255
REMARK   97  A    between atoms: _255  and  _256
REMARK   98  A    between atoms: _261  and  _263
REMARK   99  A    between atoms: _263  and  _264
REMARK  100  A    between atoms: _263  and  _266
REMARK  101  A    between atoms: _269  and  _271
REMARK  102  A    between atoms: _271  and  _272
REMARK  103  A    between atoms: _271  and  _274
REMARK  104  A    between atoms: _274  and  _275
REMARK  105  A    between atoms: _280  and  _282
REMARK  106  A    between atoms: _282  and  _283
REMARK  107  A    between atoms: _282  and  _285
REMARK  108  A    between atoms: _285  and  _286
REMARK  109  A    between atoms: _289  and  _291
REMARK  110  A    between atoms: _291  and  _292
REMARK  111  A    between atoms: _291  and  _294
REMARK  112  A    between atoms: _294  and  _295
REMARK  113  A    between atoms: _297  and  _299
REMARK  114  A    between atoms: _299  and  _300
REMARK  115  A    between atoms: _299  and  _302
REMARK  116  A    between atoms: _302  and  _303
REMARK  117  A    between atoms: _308  and  _310
REMARK  118  A    between atoms: _310  and  _311
REMARK  119  A    between atoms: _310  and  _313
REMARK  120  A    between atoms: _316  and  _318
REMARK  121  A    between atoms: _318  and  _319
REMARK  122  A    between atoms: _318  and  _321
REMARK  123  A    between atoms: _321  and  _322
REMARK  124  A    between atoms: _327  and  _329
REMARK  125  A    between atoms: _329  and  _330
REMARK  126  A    between atoms: _333  and  _335
REMARK  127  A    between atoms: _335  and  _336
REMARK  128  A    between atoms: _335  and  _338
REMARK  129  A    between atoms: _338  and  _339
REMARK  130  A    between atoms: _339  and  _340
REMARK  131  A    between atoms: _340  and  _341
REMARK  132  A    between atoms: _350  and  _352
REMARK  133  A    between atoms: _352  and  _353
REMARK  134  A    between atoms: _352  and  _355
REMARK  135  A    between atoms: _355  and  _356
REMARK  136  A    between atoms: _356  and  _357
REMARK  137  A    between atoms: _360  and  _362
REMARK  138  A    between atoms: _362  and  _363
REMARK  139  A    between atoms: _362  and  _365
REMARK  140  A    between atoms: _365  and  _366
REMARK  141  A    between atoms: _372  and  _374
REMARK  142  A    between atoms: _374  and  _375
REMARK  143  A    between atoms: _374  and  _377
REMARK  144  A    between atoms: _377  and  _378
REMARK  145  A    between atoms: _378  and  _379
REMARK  146  A    between atoms: _379  and  _380
REMARK  147  A    between atoms: _389  and  _391
REMARK  148  A    between atoms: _391  and  _392
REMARK  149  A    between atoms: _391  and  _394
REMARK  150  A    between atoms: _394  and  _395
REMARK  151  A    between atoms: _395  and  _396
REMARK  152  A    between atoms: _396  and  _397
REMARK  153  A    between atoms: _406  and  _408
REMARK  154  A    between atoms: _408  and  _409
REMARK  155  A    between atoms: _408  and  _411
REMARK  156  A    between atoms: _411  and  _412
REMARK  157  A    between atoms: _417  and  _419
REMARK  158  A    between atoms: _419  and  _420
REMARK  159  A    between atoms: _419  and  _422
REMARK  160  A    between atoms: _422  and  _423
REMARK  161  A    between atoms: _426  and  _428
REMARK  162  A    between atoms: _428  and  _429
REMARK  163  A    between atoms: _428  and  _431
REMARK  164  A    between atoms: _434  and  _436
REMARK  165  A    between atoms: _436  and  _437
REMARK  166  A    between atoms: _439  and  _441
REMARK  167  A    between atoms: _441  and  _442
REMARK  168  A    between atoms: _441  and  _444
REMARK  169  A    between atoms: _444  and  _445
REMARK  170  A    between atoms: _448  and  _450
REMARK  171  A    between atoms: _450  and  _451
REMARK  172  A    between atoms: _453  and  _455
REMARK  173  A    between atoms: _455  and  _456
REMARK  174  A    between atoms: _455  and  _458
REMARK  175  A    between atoms: _458  and  _459
REMARK  176  A    between atoms: _464  and  _465
REMARK  177  A    between atoms: _467  and  _469
REMARK  178  A    between atoms: _469  and  _470
REMARK  179  A    between atoms: _469  and  _472
REMARK  180  A    between atoms: _472  and  _473
REMARK  181  A    between atoms: _478  and  _480
REMARK  182  A    between atoms: _480  and  _481
REMARK  183  A    between atoms: _480  and  _483
REMARK  184  A    between atoms: _486  and  _488
REMARK  185  A    between atoms: _488  and  _489
REMARK  186  A    between atoms: _492  and  _494
REMARK  187  A    between atoms: _494  and  _495
REMARK  188  A    between atoms: _494  and  _497
REMARK  189  A    between atoms: _497  and  _498
REMARK  190  A    between atoms: _498  and  _499
REMARK  191  A    between atoms: _499  and  _500
REMARK  192  A    between atoms: _509  and  _511
REMARK  193  A    between atoms: _511  and  _512
REMARK  194  A    between atoms: _511  and  _514
REMARK  195  A    between atoms: _514  and  _515
REMARK  196  A    between atoms: _518  and  _520
REMARK  197  A    between atoms: _520  and  _521
REMARK  198  A    between atoms: _524  and  _526
REMARK  199  A    between atoms: _526  and  _527
REMARK  200  A    between atoms: _530  and  _532
REMARK  201  A    between atoms: _532  and  _533
REMARK  202  A    between atoms: _532  and  _535
REMARK  203  A    between atoms: _535  and  _536
REMARK  204  A    between atoms: _536  and  _537
REMARK                            x       y       z     vdW  Elec       q    Type
REMARK                         _______ _______ _______ _____ _____    ______ ____
ROOT
ATOM      1  C   ARG A   2       1.701  31.324  72.114  0.00  0.00    +0.241 C 
ATOM      2  O   ARG A   2       2.240  31.401  73.197  0.00  0.00    -0.273 OA
ATOM      3  N   ARG A   3       2.229  30.663  71.098  0.00  0.00    -0.297 N 
ATOM      4  H   ARG A   3       1.792  30.738  70.157  0.00  0.00    +0.150 HD
ENDROOT
BRANCH   3   5
ATOM      5  CA  ARG A   3       3.413  29.831  71.274  0.00  0.00    +0.149 C 
BRANCH   5   6
ATOM      6  C   ARG A   3       4.686  30.645  71.100  0.00  0.00    +0.241 C 
ATOM      7  N   HIS A   4       4.509  31.954  71.104  0.00  0.00    -0.298 N 
ATOM      8  H   HIS A   4       3.546  32.343  71.160  0.00  0.00    +0.150 HD
ATOM      9  O   ARG A   3       5.791  30.115  70.973  0.00  0.00    -0.273 OA
BRANCH   7  10
ATOM     10  CA  HIS A   4       5.619  32.835  71.032  0.00  0.00    +0.143 C 
BRANCH  10  11
ATOM     11  C   HIS A   4       5.512  33.880  72.066  0.00  0.00    +0.227 C 
ATOM     12  O   HIS A   4       4.461  34.499  72.263  0.00  0.00    -0.286 OA
ENDBRANCH  10  11
BRANCH  10  13
ATOM     13  CB  HIS A   4       5.736  33.484  69.692  0.00  0.00    +0.075 C 
BRANCH  13  14
ATOM     14  CG  HIS A   4       6.763  34.572  69.677  0.00  0.00    +0.082 A 
ATOM     15  ND1 HIS A   4       6.446  35.883  69.884  0.00  0.00    -0.227 NA
ATOM     16  CE1 HIS A   4       7.569  36.623  69.844  0.00  0.00    +0.199 A 
ATOM     17  NE2 HIS A   4       8.618  35.782  69.642  0.00  0.00    -0.221 NA
ATOM     18  CD2 HIS A   4       8.150  34.512  69.555  0.00  0.00    +0.115 A 
ENDBRANCH  13  14
ENDBRANCH  10  13
ENDBRANCH   7  10
ENDBRANCH   5   6
BRANCH   5  19
ATOM     19  CB  ARG A   3       3.344  28.646  70.347  0.00  0.00    +0.033 C 
BRANCH  19  20
ATOM     20  CG  ARG A   3       2.099  27.838  70.679  0.00  0.00    +0.045 C 
BRANCH  20  21
ATOM     21  CD  ARG A   3       2.152  26.409  70.206  0.00  0.00    +0.174 C 
BRANCH  21  22
ATOM     22  NE  ARG A   3       3.375  25.783  70.673  0.00  0.00    -0.265 N 
ATOM     23  HE  ARG A   3       3.905  26.268  71.425  0.00  0.00    +0.259 HD
ATOM     24  CZ  ARG A   3       3.872  24.634  70.213  0.00  0.00    +0.342 C 
ATOM     25  NH2 ARG A   3       5.008  24.145  70.735  0.00  0.00    -0.292 N 
ATOM     26 HH21 ARG A   3       5.496  24.662  71.494  0.00  0.00    +0.255 HD
ATOM     27 HH22 ARG A   3       5.400  23.249  70.380  0.00  0.00    +0.255 HD
ATOM     28  NH1 ARG A   3       3.255  23.989  69.238  0.00  0.00    -0.292 N 
ATOM     29 HH11 ARG A   3       3.643  23.093  68.880  0.00  0.00    +0.255 HD
ATOM     30 HH12 ARG A   3       2.381  24.377  68.829  0.00  0.00    +0.255 HD
ENDBRANCH  21  22
ENDBRANCH  20  21
ENDBRANCH  19  20
ENDBRANCH   5  19
ENDBRANCH   3   5
BRANCH   1  31
ATOM     31  CA  ARG A   2       0.416  32.055  71.864  0.00  0.00    +0.149 C 
BRANCH  31  33
ATOM     32  C   PHE A   1       0.633  32.978  69.646  0.00  0.00    +0.239 C 
ATOM     33  N   ARG A   2       0.115  32.057  70.450  0.00  0.00    -0.297 N 
ATOM     34  H   ARG A   2      -0.515  31.328  70.058  0.00  0.00    +0.150 HD
ATOM     35  O   PHE A   1       1.341  33.908  70.064  0.00  0.00    -0.274 OA
BRANCH  32  36
ATOM     36  CA  PHE A   1       0.304  32.852  68.152  0.00  0.00    +0.149 C 
BRANCH  36  37
ATOM     37  N   PHE A   1      -0.388  31.594  67.825  0.00  0.00    -0.238 NA
ATOM     38  H   PHE A   1      -1.402  31.616  67.595  0.00  0.00    +0.142 HD
ENDBRANCH  36  37
BRANCH  36  39
ATOM     39  CB  PHE A   1      -0.509  34.083  67.697  0.00  0.00    +0.053 C 
BRANCH  39  40
ATOM     40  CG  PHE A   1      -1.918  34.083  68.197  0.00  0.00    -0.020 A 
ATOM     41  CD2 PHE A   1      -2.198  34.366  69.538  0.00  0.00    -0.004 A 
ATOM     42  CE2 PHE A   1      -3.506  34.315  70.006  0.00  0.00    -0.000 A 
ATOM     43  CZ  PHE A   1      -4.535  33.977  69.141  0.00  0.00    -0.000 A 
ATOM     44  CE1 PHE A   1      -4.274  33.723  67.802  0.00  0.00    -0.000 A 
ATOM     45  CD1 PHE A   1      -2.971  33.752  67.348  0.00  0.00    -0.004 A 
ENDBRANCH  39  40
ENDBRANCH  36  39
ENDBRANCH  32  36
ENDBRANCH  31  33
BRANCH  31  46
ATOM     46  CB  ARG A   2      -0.692  31.399  72.666  0.00  0.00    +0.033 C 
BRANCH  46  47
ATOM     47  CG  ARG A   2      -2.012  32.160  72.610  0.00  0.00    +0.045 C 
BRANCH  47  48
ATOM     48  CD  ARG A   2      -3.009  31.613  73.609  0.00  0.00    +0.174 C 
BRANCH  48  49
ATOM     49  NE  ARG A   2      -4.330  31.964  73.121  0.00  0.00    -0.265 N 
ATOM     50  CZ  ARG A   2      -5.039  33.042  73.459  0.00  0.00    +0.342 C 
ATOM     51  NH2 ARG A   2      -4.600  33.941  74.338  0.00  0.00    -0.292 N 
ATOM     52 HH21 ARG A   2      -3.671  33.816  74.790  0.00  0.00    +0.255 HD
ATOM     53 HH22 ARG A   2      -5.186  34.768  74.573  0.00  0.00    +0.255 HD
ATOM     54  NH1 ARG A   2      -6.206  33.220  72.877  0.00  0.00    -0.292 N 
ATOM     55 HH11 ARG A   2      -6.785  34.050  73.117  0.00  0.00    +0.255 HD
ATOM     56 HH12 ARG A   2      -6.549  32.531  72.177  0.00  0.00    +0.255 HD
ATOM     57  HE  ARG A   2      -4.767  31.310  72.440  0.00  0.00    +0.259 HD
ENDBRANCH  48  49
ENDBRANCH  47  48
ENDBRANCH  46  47
ENDBRANCH  31  46
ENDBRANCH   1  31
TORSDOF 20
REMARK  Name = ../refined-set-2016/4kiu/4kiu_pocket.pdb
REMARK  204 active torsions:
REMARK  status: ('A' for Active; 'I' for Inactive)
REMARK    1  A    between atoms: _1  and  _3
REMARK    2  A    between atoms: _3  and  _4
REMARK    3  A    between atoms: _3  and  _6
REMARK    4  A    between atoms: _6  and  _7
REMARK    5  A    between atoms: _12  and  _14
REMARK    6  A    between atoms: _14  and  _15
REMARK    7  A    between atoms: _18  and  _19
REMARK    8  A    between atoms: _24  and  _26
REMARK    9  A    between atoms: _26  and  _27
REMARK   10  A    between atoms: _26  and  _29
REMARK   11  A    between atoms: _29  and  _30
REMARK   12  A    between atoms: _35  and  _37
REMARK   13  A    between atoms: _37  and  _38
REMARK   14  A    between atoms: _37  and  _40
REMARK   15  A    between atoms: _40  and  _41
REMARK   16  A    between atoms: _44  and  _46
REMARK   17  A    between atoms: _46  and  _47
REMARK   18  A    between atoms: _49  and  _51
REMARK   19  A    between atoms: _51  and  _52
REMARK   20  A    between atoms: _51  and  _54
REMARK   21  A    between atoms: _54  and  _55
REMARK   22  A    between atoms: _55  and  _56
REMARK   23  A    between atoms: _56  and  _57
REMARK   24  A    between atoms: _66  and  _68
REMARK   25  A    between atoms: _68  and  _69
REMARK   26  A    between atoms: _68  and  _71
REMARK   27  A    between atoms: _71  and  _72
REMARK   28  A    between atoms: _75  and  _77
REMARK   29  A    between atoms: _77  and  _78
REMARK   30  A    between atoms: _82  and  _83
REMARK   31  A    between atoms: _82  and  _85
REMARK   32  A    between atoms: _85  and  _86
REMARK   33  A    between atoms: _86  and  _87
REMARK   34  A    between atoms: _87  and  _88
REMARK   35  A    between atoms: _97  and  _99
REMARK   36  A    between atoms: _99  and  _100
REMARK   37  A    between atoms: _99  and  _102
REMARK   38  A    between atoms: _102  and  _103
REMARK   39  A    between atoms: _103  and  _104
REMARK   40  A    between atoms: _104  and  _105
REMARK   41  A    between atoms: _114  and  _116
REMARK   42  A    between atoms: _116  and  _117
REMARK   43  A    between atoms: _116  and  _119
REMARK   44  A    between atoms: _119  and  _120
REMARK   45  A    between atoms: _120  and  _121
REMARK   46  A    between atoms: _125  and  _126
REMARK   47  A    between atoms: _131  and  _133
REMARK   48  A    between atoms: _133  and  _134
REMARK   49  A    between atoms: _137  and  _139
REMARK   50  A    between atoms: _139  and  _140
REMARK   51  A    between atoms: _139  and  _142
REMARK   52  A    between atoms: _145  and  _147
REMARK   53  A    between atoms: _147  and  _148
REMARK   54  A    between atoms: _147  and  _150
REMARK   55  A    between atoms: _150  and  _151
REMARK   56  A    between atoms: _156  and  _157
REMARK   57  A    between atoms: _159  and  _161
REMARK   58  A    between atoms: _161  and  _162
REMARK   59  A    between atoms: _164  and  _166
REMARK   60  A    between atoms: _166  and  _167
REMARK   61  A    between atoms: _166  and  _169
REMARK   62  A    between atoms: _169  and  _170
REMARK   63  A    between atoms: _173  and  _175
REMARK   64  A    between atoms: _175  and  _176
REMARK   65  A    between atoms: _175  and  _178
REMARK   66  A    between atoms: _178  and  _179
REMARK   67  A    between atoms: _184  and  _186
REMARK   68  A    between atoms: _186  and  _187
REMARK   69  A    between atoms: _186  and  _189
REMARK   70  A    between atoms: _189  and  _190
REMARK   71  A    between atoms: _190  and  _191
REMARK   72  A    between atoms: _196  and  _198
REMARK   73  A    between atoms: _198  and  _199
REMARK   74  A    between atoms: _198  and  _201
REMARK   75  A    between atoms: _201  and  _202
REMARK   76  A    between atoms: _205  and  _207
REMARK   77  A    between atoms: _207  and  _208
REMARK   78  A    between atoms: _207  and  _210
REMARK   79  A    between atoms: _210  and  _211
REMARK   80  A    between atoms: _216  and  _218
REMARK   81  A    between atoms: _218  and  _219
REMARK   82  A    between atoms: _222  and  _224
REMARK   83  A    between atoms: _224  and  _225
REMARK   84  A    between atoms: _227  and  _229
REMARK   85  A    between atoms: _229  and  _230
REMARK   86  A    between atoms: _232  and  _234
REMARK   87  A    between atoms: _234  and  _235
REMARK   88  A    between atoms: _234  and  _237
REMARK   89  A    between atoms: _237  and  _238
REMARK   90  A    between atoms: _241  and  _243
REMARK   91  A    between atoms: _243  and  _244
REMARK   92  A    between atoms: _243  and  _246
REMARK   93  A    between atoms: _246  and  _247
REMARK   94  A    between atoms: _250  and  _252
REMARK   95  A    between atoms: _252  and  _253
REMARK   96  A    between atoms: _252  and  _255
REMARK   97  A    between atoms: _255  and  _256
REMARK   98  A    between atoms: _261  and  _263
REMARK   99  A    between atoms: _263  and  _264
REMARK  100  A    between atoms: _263  and  _266
REMARK  101  A    between atoms: _269  and  _271
REMARK  102  A    between atoms: _271  and  _272
REMARK  103  A    between atoms: _271  and  _274
REMARK  104  A    between atoms: _274  and  _275
REMARK  105  A    between atoms: _280  and  _282
REMARK  106  A    between atoms: _282  and  _283
REMARK  107  A    between atoms: _282  and  _285
REMARK  108  A    between atoms: _285  and  _286
REMARK  109  A    between atoms: _289  and  _291
REMARK  110  A    between atoms: _291  and  _292
REMARK  111  A    between atoms: _291  and  _294
REMARK  112  A    between atoms: _294  and  _295
REMARK  113  A    between atoms: _297  and  _299
REMARK  114  A    between atoms: _299  and  _300
REMARK  115  A    between atoms: _299  and  _302
REMARK  116  A    between atoms: _302  and  _303
REMARK  117  A    between atoms: _308  and  _310
REMARK  118  A    between atoms: _310  and  _311
REMARK  119  A    between atoms: _310  and  _313
REMARK  120  A    between atoms: _316  and  _318
REMARK  121  A    between atoms: _318  and  _319
REMARK  122  A    between atoms: _318  and  _321
REMARK  123  A    between atoms: _321  and  _322
REMARK  124  A    between atoms: _327  and  _329
REMARK  125  A    between atoms: _329  and  _330
REMARK  126  A    between atoms: _333  and  _335
REMARK  127  A    between atoms: _335  and  _336
REMARK  128  A    between atoms: _335  and  _338
REMARK  129  A    between atoms: _338  and  _339
REMARK  130  A    between atoms: _339  and  _340
REMARK  131  A    between atoms: _340  and  _341
REMARK  132  A    between atoms: _350  and  _352
REMARK  133  A    between atoms: _352  and  _353
REMARK  134  A    between atoms: _352  and  _355
REMARK  135  A    between atoms: _355  and  _356
REMARK  136  A    between atoms: _356  and  _357
REMARK  137  A    between atoms: _360  and  _362
REMARK  138  A    between atoms: _362  and  _363
REMARK  139  A    between atoms: _362  and  _365
REMARK  140  A    between atoms: _365  and  _366
REMARK  141  A    between atoms: _372  and  _374
REMARK  142  A    between atoms: _374  and  _375
REMARK  143  A    between atoms: _374  and  _377
REMARK  144  A    between atoms: _377  and  _378
REMARK  145  A    between atoms: _378  and  _379
REMARK  146  A    between atoms: _379  and  _380
REMARK  147  A    between atoms: _389  and  _391
REMARK  148  A    between atoms: _391  and  _392
REMARK  149  A    between atoms: _391  and  _394
REMARK  150  A    between atoms: _394  and  _395
REMARK  151  A    between atoms: _395  and  _396
REMARK  152  A    between atoms: _396  and  _397
REMARK  153  A    between atoms: _406  and  _408
REMARK  154  A    between atoms: _408  and  _409
REMARK  155  A    between atoms: _408  and  _411
REMARK  156  A    between atoms: _411  and  _412
REMARK  157  A    between atoms: _417  and  _419
REMARK  158  A    between atoms: _419  and  _420
REMARK  159  A    between atoms: _419  and  _422
REMARK  160  A    between atoms: _422  and  _423
REMARK  161  A    between atoms: _426  and  _428
REMARK  162  A    between atoms: _428  and  _429
REMARK  163  A    between atoms: _428  and  _431
REMARK  164  A    between atoms: _434  and  _436
REMARK  165  A    between atoms: _436  and  _437
REMARK  166  A    between atoms: _439  and  _441
REMARK  167  A    between atoms: _441  and  _442
REMARK  168  A    between atoms: _441  and  _444
REMARK  169  A    between atoms: _444  and  _445
REMARK  170  A    between atoms: _448  and  _450
REMARK  171  A    between atoms: _450  and  _451
REMARK  172  A    between atoms: _453  and  _455
REMARK  173  A    between atoms: _455  and  _456
REMARK  174  A    between atoms: _455  and  _458
REMARK  175  A    between atoms: _458  and  _459
REMARK  176  A    between atoms: _464  and  _465
REMARK  177  A    between atoms: _467  and  _469
REMARK  178  A    between atoms: _469  and  _470
REMARK  179  A    between atoms: _469  and  _472
REMARK  180  A    between atoms: _472  and  _473
REMARK  181  A    between atoms: _478  and  _480
REMARK  182  A    between atoms: _480  and  _481
REMARK  183  A    between atoms: _480  and  _483
REMARK  184  A    between atoms: _486  and  _488
REMARK  185  A    between atoms: _488  and  _489
REMARK  186  A    between atoms: _492  and  _494
REMARK  187  A    between atoms: _494  and  _495
REMARK  188  A    between atoms: _494  and  _497
REMARK  189  A    between atoms: _497  and  _498
REMARK  190  A    between atoms: _498  and  _499
REMARK  191  A    between atoms: _499  and  _500
REMARK  192  A    between atoms: _509  and  _511
REMARK  193  A    between atoms: _511  and  _512
REMARK  194  A    between atoms: _511  and  _514
REMARK  195  A    between atoms: _514  and  _515
REMARK  196  A    between atoms: _518  and  _520
REMARK  197  A    between atoms: _520  and  _521
REMARK  198  A    between atoms: _524  and  _526
REMARK  199  A    between atoms: _526  and  _527
REMARK  200  A    between atoms: _530  and  _532
REMARK  201  A    between atoms: _532  and  _533
REMARK  202  A    between atoms: _532  and  _535
REMARK  203  A    between atoms: _535  and  _536
REMARK  204  A    between atoms: _536  and  _537
REMARK                            x       y       z     vdW  Elec       q    Type
REMARK                         _______ _______ _______ _____ _____    ______ ____
ROOT
ATOM      1  C   VAL A   2       2.283  26.052  82.222  0.00  0.00    +0.241 C 
ATOM      2  N   GLY A   3       0.982  26.262  82.349  0.00  0.00    -0.295 N 
ATOM      3  H   GLY A   3       0.661  27.238  82.512  0.00  0.00    +0.150 HD
ATOM      4  O   VAL A   2       2.801  24.955  82.314  0.00  0.00    -0.273 OA
ENDROOT
BRANCH   1   5
ATOM      5  CA  VAL A   2       3.126  27.298  82.034  0.00  0.00    +0.148 C 
BRANCH   5   8
ATOM      6  C   ILE A   1       4.787  28.259  83.450  0.00  0.00    +0.238 C 
ATOM      7  O   ILE A   1       4.262  29.377  83.450  0.00  0.00    -0.274 OA
ATOM      8  N   VAL A   2       4.221  27.190  82.923  0.00  0.00    -0.297 N 
ATOM      9  H   VAL A   2       4.588  26.248  83.166  0.00  0.00    +0.150 HD
BRANCH   6  10
ATOM     10  CA  ILE A   1       6.128  28.007  84.096  0.00  0.00    +0.145 C 
BRANCH  10  11
ATOM     11  N   ILE A   1       6.989  29.045  83.618  0.00  0.00    -0.238 NA
ATOM     12  H   ILE A   1       6.677  30.032  83.719  0.00  0.00    +0.142 HD
ENDBRANCH  10  11
BRANCH  10  13
ATOM     13  CB  ILE A   1       5.973  28.051  85.633  0.00  0.00    +0.025 C 
ATOM     14  CG2 ILE A   1       5.038  26.945  86.081  0.00  0.00    +0.002 C 
BRANCH  13  15
ATOM     15  CG1 ILE A   1       7.343  27.861  86.276  0.00  0.00    +0.002 C 
ATOM     16  CD1 ILE A   1       7.358  27.708  87.782  0.00  0.00    +0.000 C 
ENDBRANCH  13  15
ENDBRANCH  10  13
ENDBRANCH   6  10
ENDBRANCH   5   8
BRANCH   5  17
ATOM     17  CB  VAL A   2       3.706  27.481  80.622  0.00  0.00    +0.027 C 
ATOM     18  CG2 VAL A   2       3.297  28.828  80.074  0.00  0.00    +0.002 C 
ATOM     19  CG1 VAL A   2       3.402  26.331  79.664  0.00  0.00    +0.002 C 
ENDBRANCH   5  17
ENDBRANCH   1   5
BRANCH   2  20
ATOM     20  CA  GLY A   3      -0.028  25.217  82.275  0.00  0.00    +0.176 C 
BRANCH  20  21
ATOM     21  C   GLY A   3      -0.214  24.428  83.538  0.00  0.00    +0.243 C 
ATOM     22  N   LEU A   4       0.357  24.910  84.649  0.00  0.00    -0.297 N 
ATOM     23  H   LEU A   4       0.883  25.806  84.594  0.00  0.00    +0.150 HD
ATOM     24  O   GLY A   3      -0.855  23.387  83.503  0.00  0.00    -0.273 OA
BRANCH  22  25
ATOM     25  CA  LEU A   4       0.268  24.223  85.936  0.00  0.00    +0.149 C 
BRANCH  25  26
ATOM     26  C   LEU A   4      -0.643  24.987  86.891  0.00  0.00    +0.241 C 
ATOM     27  O   LEU A   4      -0.465  24.899  88.128  0.00  0.00    -0.273 OA
ATOM     28  N   GLY A   5      -1.578  25.759  86.321  0.00  0.00    -0.296 N 
ATOM     29  H   GLY A   5      -1.620  25.790  85.282  0.00  0.00    +0.150 HD
BRANCH  28  30
ATOM     30  CA  GLY A   5      -2.548  26.565  87.078  0.00  0.00    +0.163 C 
BRANCH  30  31
ATOM     31  C   GLY A   5      -2.016  27.574  88.100  0.00  0.00    +0.229 C 
ATOM     32  O   GLY A   5      -0.847  27.986  88.050  0.00  0.00    -0.286 OA
ENDBRANCH  30  31
ENDBRANCH  28  30
ENDBRANCH  25  26
BRANCH  25  33
ATOM     33  CB  LEU A   4       1.649  24.134  86.583  0.00  0.00    +0.029 C 
BRANCH  33  34
ATOM     34  CG  LEU A   4       2.766  23.404  85.836  0.00  0.00    +0.002 C 
ATOM     35  CD2 LEU A   4       4.037  23.391  86.685  0.00  0.00    +0.000 C 
ATOM     36  CD1 LEU A   4       2.323  21.997  85.492  0.00  0.00    +0.000 C 
ENDBRANCH  33  34
ENDBRANCH  25  33
ENDBRANCH  22  25
ENDBRANCH  20  21
ENDBRANCH   2  20
TORSDOF 15
REMARK  Name = ../refined-set-2016/4kiu/4kiu_pocket.pdb
REMARK  204 active torsions:
REMARK  status: ('A' for Active; 'I' for Inactive)
REMARK    1  A    between atoms: _1  and  _3
REMARK    2  A    between atoms: _3  and  _4
REMARK    3  A    between atoms: _3  and  _6
REMARK    4  A    between atoms: _6  and  _7
REMARK    5  A    between atoms: _12  and  _14
REMARK    6  A    between atoms: _14  and  _15
REMARK    7  A    between atoms: _18  and  _19
REMARK    8  A    between atoms: _24  and  _26
REMARK    9  A    between atoms: _26  and  _27
REMARK   10  A    between atoms: _26  and  _29
REMARK   11  A    between atoms: _29  and  _30
REMARK   12  A    between atoms: _35  and  _37
REMARK   13  A    between atoms: _37  and  _38
REMARK   14  A    between atoms: _37  and  _40
REMARK   15  A    between atoms: _40  and  _41
REMARK   16  A    between atoms: _44  and  _46
REMARK   17  A    between atoms: _46  and  _47
REMARK   18  A    between atoms: _49  and  _51
REMARK   19  A    between atoms: _51  and  _52
REMARK   20  A    between atoms: _51  and  _54
REMARK   21  A    between atoms: _54  and  _55
REMARK   22  A    between atoms: _55  and  _56
REMARK   23  A    between atoms: _56  and  _57
REMARK   24  A    between atoms: _66  and  _68
REMARK   25  A    between atoms: _68  and  _69
REMARK   26  A    between atoms: _68  and  _71
REMARK   27  A    between atoms: _71  and  _72
REMARK   28  A    between atoms: _75  and  _77
REMARK   29  A    between atoms: _77  and  _78
REMARK   30  A    between atoms: _82  and  _83
REMARK   31  A    between atoms: _82  and  _85
REMARK   32  A    between atoms: _85  and  _86
REMARK   33  A    between atoms: _86  and  _87
REMARK   34  A    between atoms: _87  and  _88
REMARK   35  A    between atoms: _97  and  _99
REMARK   36  A    between atoms: _99  and  _100
REMARK   37  A    between atoms: _99  and  _102
REMARK   38  A    between atoms: _102  and  _103
REMARK   39  A    between atoms: _103  and  _104
REMARK   40  A    between atoms: _104  and  _105
REMARK   41  A    between atoms: _114  and  _116
REMARK   42  A    between atoms: _116  and  _117
REMARK   43  A    between atoms: _116  and  _119
REMARK   44  A    between atoms: _119  and  _120
REMARK   45  A    between atoms: _120  and  _121
REMARK   46  A    between atoms: _125  and  _126
REMARK   47  A    between atoms: _131  and  _133
REMARK   48  A    between atoms: _133  and  _134
REMARK   49  A    between atoms: _137  and  _139
REMARK   50  A    between atoms: _139  and  _140
REMARK   51  A    between atoms: _139  and  _142
REMARK   52  A    between atoms: _145  and  _147
REMARK   53  A    between atoms: _147  and  _148
REMARK   54  A    between atoms: _147  and  _150
REMARK   55  A    between atoms: _150  and  _151
REMARK   56  A    between atoms: _156  and  _157
REMARK   57  A    between atoms: _159  and  _161
REMARK   58  A    between atoms: _161  and  _162
REMARK   59  A    between atoms: _164  and  _166
REMARK   60  A    between atoms: _166  and  _167
REMARK   61  A    between atoms: _166  and  _169
REMARK   62  A    between atoms: _169  and  _170
REMARK   63  A    between atoms: _173  and  _175
REMARK   64  A    between atoms: _175  and  _176
REMARK   65  A    between atoms: _175  and  _178
REMARK   66  A    between atoms: _178  and  _179
REMARK   67  A    between atoms: _184  and  _186
REMARK   68  A    between atoms: _186  and  _187
REMARK   69  A    between atoms: _186  and  _189
REMARK   70  A    between atoms: _189  and  _190
REMARK   71  A    between atoms: _190  and  _191
REMARK   72  A    between atoms: _196  and  _198
REMARK   73  A    between atoms: _198  and  _199
REMARK   74  A    between atoms: _198  and  _201
REMARK   75  A    between atoms: _201  and  _202
REMARK   76  A    between atoms: _205  and  _207
REMARK   77  A    between atoms: _207  and  _208
REMARK   78  A    between atoms: _207  and  _210
REMARK   79  A    between atoms: _210  and  _211
REMARK   80  A    between atoms: _216  and  _218
REMARK   81  A    between atoms: _218  and  _219
REMARK   82  A    between atoms: _222  and  _224
REMARK   83  A    between atoms: _224  and  _225
REMARK   84  A    between atoms: _227  and  _229
REMARK   85  A    between atoms: _229  and  _230
REMARK   86  A    between atoms: _232  and  _234
REMARK   87  A    between atoms: _234  and  _235
REMARK   88  A    between atoms: _234  and  _237
REMARK   89  A    between atoms: _237  and  _238
REMARK   90  A    between atoms: _241  and  _243
REMARK   91  A    between atoms: _243  and  _244
REMARK   92  A    between atoms: _243  and  _246
REMARK   93  A    between atoms: _246  and  _247
REMARK   94  A    between atoms: _250  and  _252
REMARK   95  A    between atoms: _252  and  _253
REMARK   96  A    between atoms: _252  and  _255
REMARK   97  A    between atoms: _255  and  _256
REMARK   98  A    between atoms: _261  and  _263
REMARK   99  A    between atoms: _263  and  _264
REMARK  100  A    between atoms: _263  and  _266
REMARK  101  A    between atoms: _269  and  _271
REMARK  102  A    between atoms: _271  and  _272
REMARK  103  A    between atoms: _271  and  _274
REMARK  104  A    between atoms: _274  and  _275
REMARK  105  A    between atoms: _280  and  _282
REMARK  106  A    between atoms: _282  and  _283
REMARK  107  A    between atoms: _282  and  _285
REMARK  108  A    between atoms: _285  and  _286
REMARK  109  A    between atoms: _289  and  _291
REMARK  110  A    between atoms: _291  and  _292
REMARK  111  A    between atoms: _291  and  _294
REMARK  112  A    between atoms: _294  and  _295
REMARK  113  A    between atoms: _297  and  _299
REMARK  114  A    between atoms: _299  and  _300
REMARK  115  A    between atoms: _299  and  _302
REMARK  116  A    between atoms: _302  and  _303
REMARK  117  A    between atoms: _308  and  _310
REMARK  118  A    between atoms: _310  and  _311
REMARK  119  A    between atoms: _310  and  _313
REMARK  120  A    between atoms: _316  and  _318
REMARK  121  A    between atoms: _318  and  _319
REMARK  122  A    between atoms: _318  and  _321
REMARK  123  A    between atoms: _321  and  _322
REMARK  124  A    between atoms: _327  and  _329
REMARK  125  A    between atoms: _329  and  _330
REMARK  126  A    between atoms: _333  and  _335
REMARK  127  A    between atoms: _335  and  _336
REMARK  128  A    between atoms: _335  and  _338
REMARK  129  A    between atoms: _338  and  _339
REMARK  130  A    between atoms: _339  and  _340
REMARK  131  A    between atoms: _340  and  _341
REMARK  132  A    between atoms: _350  and  _352
REMARK  133  A    between atoms: _352  and  _353
REMARK  134  A    between atoms: _352  and  _355
REMARK  135  A    between atoms: _355  and  _356
REMARK  136  A    between atoms: _356  and  _357
REMARK  137  A    between atoms: _360  and  _362
REMARK  138  A    between atoms: _362  and  _363
REMARK  139  A    between atoms: _362  and  _365
REMARK  140  A    between atoms: _365  and  _366
REMARK  141  A    between atoms: _372  and  _374
REMARK  142  A    between atoms: _374  and  _375
REMARK  143  A    between atoms: _374  and  _377
REMARK  144  A    between atoms: _377  and  _378
REMARK  145  A    between atoms: _378  and  _379
REMARK  146  A    between atoms: _379  and  _380
REMARK  147  A    between atoms: _389  and  _391
REMARK  148  A    between atoms: _391  and  _392
REMARK  149  A    between atoms: _391  and  _394
REMARK  150  A    between atoms: _394  and  _395
REMARK  151  A    between atoms: _395  and  _396
REMARK  152  A    between atoms: _396  and  _397
REMARK  153  A    between atoms: _406  and  _408
REMARK  154  A    between atoms: _408  and  _409
REMARK  155  A    between atoms: _408  and  _411
REMARK  156  A    between atoms: _411  and  _412
REMARK  157  A    between atoms: _417  and  _419
REMARK  158  A    between atoms: _419  and  _420
REMARK  159  A    between atoms: _419  and  _422
REMARK  160  A    between atoms: _422  and  _423
REMARK  161  A    between atoms: _426  and  _428
REMARK  162  A    between atoms: _428  and  _429
REMARK  163  A    between atoms: _428  and  _431
REMARK  164  A    between atoms: _434  and  _436
REMARK  165  A    between atoms: _436  and  _437
REMARK  166  A    between atoms: _439  and  _441
REMARK  167  A    between atoms: _441  and  _442
REMARK  168  A    between atoms: _441  and  _444
REMARK  169  A    between atoms: _444  and  _445
REMARK  170  A    between atoms: _448  and  _450
REMARK  171  A    between atoms: _450  and  _451
REMARK  172  A    between atoms: _453  and  _455
REMARK  173  A    between atoms: _455  and  _456
REMARK  174  A    between atoms: _455  and  _458
REMARK  175  A    between atoms: _458  and  _459
REMARK  176  A    between atoms: _464  and  _465
REMARK  177  A    between atoms: _467  and  _469
REMARK  178  A    between atoms: _469  and  _470
REMARK  179  A    between atoms: _469  and  _472
REMARK  180  A    between atoms: _472  and  _473
REMARK  181  A    between atoms: _478  and  _480
REMARK  182  A    between atoms: _480  and  _481
REMARK  183  A    between atoms: _480  and  _483
REMARK  184  A    between atoms: _486  and  _488
REMARK  185  A    between atoms: _488  and  _489
REMARK  186  A    between atoms: _492  and  _494
REMARK  187  A    between atoms: _494  and  _495
REMARK  188  A    between atoms: _494  and  _497
REMARK  189  A    between atoms: _497  and  _498
REMARK  190  A    between atoms: _498  and  _499
REMARK  191  A    between atoms: _499  and  _500
REMARK  192  A    between atoms: _509  and  _511
REMARK  193  A    between atoms: _511  and  _512
REMARK  194  A    between atoms: _511  and  _514
REMARK  195  A    between atoms: _514  and  _515
REMARK  196  A    between atoms: _518  and  _520
REMARK  197  A    between atoms: _520  and  _521
REMARK  198  A    between atoms: _524  and  _526
REMARK  199  A    between atoms: _526  and  _527
REMARK  200  A    between atoms: _530  and  _532
REMARK  201  A    between atoms: _532  and  _533
REMARK  202  A    between atoms: _532  and  _535
REMARK  203  A    between atoms: _535  and  _536
REMARK  204  A    between atoms: _536  and  _537
REMARK                            x       y       z     vdW  Elec       q    Type
REMARK                         _______ _______ _______ _____ _____    ______ ____
ROOT
ATOM      1  CG  TYR A   1       1.024  32.815  90.502  0.00  0.00    -0.020 A 
ATOM      2  CD2 TYR A   1      -0.149  32.286  89.959  0.00  0.00    -0.001 A 
ATOM      3  CE2 TYR A   1      -0.801  32.911  88.911  0.00  0.00    +0.036 A 
ATOM      4  CZ  TYR A   1      -0.277  34.083  88.375  0.00  0.00    +0.134 A 
ATOM      5  CE1 TYR A   1       0.883  34.623  88.891  0.00  0.00    +0.036 A 
ATOM      6  CD1 TYR A   1       1.538  33.978  89.944  0.00  0.00    -0.001 A 
ENDROOT
BRANCH   4   7
ATOM      7  OH  TYR A   1      -0.907  34.720  87.314  0.00  0.00    -0.506 OA
ATOM      8  HH  TYR A   1      -1.161  35.638  87.585  0.00  0.00    +0.292 HD
ENDBRANCH   4   7
BRANCH   1   9
ATOM      9  CB  TYR A   1       1.723  32.137  91.627  0.00  0.00    +0.051 C 
BRANCH   9  10
ATOM     10  CA  TYR A   1       2.837  31.197  91.148  0.00  0.00    +0.137 C 
BRANCH  10  11
ATOM     11  N   TYR A   1       2.273  30.139  90.318  0.00  0.00    -0.239 NA
ATOM     12  H   TYR A   1       1.239  30.064  90.238  0.00  0.00    +0.142 HD
ENDBRANCH  10  11
BRANCH  10  13
ATOM     13  C   TYR A   1       3.582  30.687  92.350  0.00  0.00    +0.224 C 
ATOM     14  O   TYR A   1       4.647  31.182  92.705  0.00  0.00    -0.287 OA
ENDBRANCH  10  13
ENDBRANCH   9  10
ENDBRANCH   1   9
TORSDOF 5
REMARK  Name = ../refined-set-2016/4kiu/4kiu_pocket.pdb
REMARK  204 active torsions:
REMARK  status: ('A' for Active; 'I' for Inactive)
REMARK    1  A    between atoms: _1  and  _3
REMARK    2  A    between atoms: _3  and  _4
REMARK    3  A    between atoms: _3  and  _6
REMARK    4  A    between atoms: _6  and  _7
REMARK    5  A    between atoms: _12  and  _14
REMARK    6  A    between atoms: _14  and  _15
REMARK    7  A    between atoms: _18  and  _19
REMARK    8  A    between atoms: _24  and  _26
REMARK    9  A    between atoms: _26  and  _27
REMARK   10  A    between atoms: _26  and  _29
REMARK   11  A    between atoms: _29  and  _30
REMARK   12  A    between atoms: _35  and  _37
REMARK   13  A    between atoms: _37  and  _38
REMARK   14  A    between atoms: _37  and  _40
REMARK   15  A    between atoms: _40  and  _41
REMARK   16  A    between atoms: _44  and  _46
REMARK   17  A    between atoms: _46  and  _47
REMARK   18  A    between atoms: _49  and  _51
REMARK   19  A    between atoms: _51  and  _52
REMARK   20  A    between atoms: _51  and  _54
REMARK   21  A    between atoms: _54  and  _55
REMARK   22  A    between atoms: _55  and  _56
REMARK   23  A    between atoms: _56  and  _57
REMARK   24  A    between atoms: _66  and  _68
REMARK   25  A    between atoms: _68  and  _69
REMARK   26  A    between atoms: _68  and  _71
REMARK   27  A    between atoms: _71  and  _72
REMARK   28  A    between atoms: _75  and  _77
REMARK   29  A    between atoms: _77  and  _78
REMARK   30  A    between atoms: _82  and  _83
REMARK   31  A    between atoms: _82  and  _85
REMARK   32  A    between atoms: _85  and  _86
REMARK   33  A    between atoms: _86  and  _87
REMARK   34  A    between atoms: _87  and  _88
REMARK   35  A    between atoms: _97  and  _99
REMARK   36  A    between atoms: _99  and  _100
REMARK   37  A    between atoms: _99  and  _102
REMARK   38  A    between atoms: _102  and  _103
REMARK   39  A    between atoms: _103  and  _104
REMARK   40  A    between atoms: _104  and  _105
REMARK   41  A    between atoms: _114  and  _116
REMARK   42  A    between atoms: _116  and  _117
REMARK   43  A    between atoms: _116  and  _119
REMARK   44  A    between atoms: _119  and  _120
REMARK   45  A    between atoms: _120  and  _121
REMARK   46  A    between atoms: _125  and  _126
REMARK   47  A    between atoms: _131  and  _133
REMARK   48  A    between atoms: _133  and  _134
REMARK   49  A    between atoms: _137  and  _139
REMARK   50  A    between atoms: _139  and  _140
REMARK   51  A    between atoms: _139  and  _142
REMARK   52  A    between atoms: _145  and  _147
REMARK   53  A    between atoms: _147  and  _148
REMARK   54  A    between atoms: _147  and  _150
REMARK   55  A    between atoms: _150  and  _151
REMARK   56  A    between atoms: _156  and  _157
REMARK   57  A    between atoms: _159  and  _161
REMARK   58  A    between atoms: _161  and  _162
REMARK   59  A    between atoms: _164  and  _166
REMARK   60  A    between atoms: _166  and  _167
REMARK   61  A    between atoms: _166  and  _169
REMARK   62  A    between atoms: _169  and  _170
REMARK   63  A    between atoms: _173  and  _175
REMARK   64  A    between atoms: _175  and  _176
REMARK   65  A    between atoms: _175  and  _178
REMARK   66  A    between atoms: _178  and  _179
REMARK   67  A    between atoms: _184  and  _186
REMARK   68  A    between atoms: _186  and  _187
REMARK   69  A    between atoms: _186  and  _189
REMARK   70  A    between atoms: _189  and  _190
REMARK   71  A    between atoms: _190  and  _191
REMARK   72  A    between atoms: _196  and  _198
REMARK   73  A    between atoms: _198  and  _199
REMARK   74  A    between atoms: _198  and  _201
REMARK   75  A    between atoms: _201  and  _202
REMARK   76  A    between atoms: _205  and  _207
REMARK   77  A    between atoms: _207  and  _208
REMARK   78  A    between atoms: _207  and  _210
REMARK   79  A    between atoms: _210  and  _211
REMARK   80  A    between atoms: _216  and  _218
REMARK   81  A    between atoms: _218  and  _219
REMARK   82  A    between atoms: _222  and  _224
REMARK   83  A    between atoms: _224  and  _225
REMARK   84  A    between atoms: _227  and  _229
REMARK   85  A    between atoms: _229  and  _230
REMARK   86  A    between atoms: _232  and  _234
REMARK   87  A    between atoms: _234  and  _235
REMARK   88  A    between atoms: _234  and  _237
REMARK   89  A    between atoms: _237  and  _238
REMARK   90  A    between atoms: _241  and  _243
REMARK   91  A    between atoms: _243  and  _244
REMARK   92  A    between atoms: _243  and  _246
REMARK   93  A    between atoms: _246  and  _247
REMARK   94  A    between atoms: _250  and  _252
REMARK   95  A    between atoms: _252  and  _253
REMARK   96  A    between atoms: _252  and  _255
REMARK   97  A    between atoms: _255  and  _256
REMARK   98  A    between atoms: _261  and  _263
REMARK   99  A    between atoms: _263  and  _264
REMARK  100  A    between atoms: _263  and  _266
REMARK  101  A    between atoms: _269  and  _271
REMARK  102  A    between atoms: _271  and  _272
REMARK  103  A    between atoms: _271  and  _274
REMARK  104  A    between atoms: _274  and  _275
REMARK  105  A    between atoms: _280  and  _282
REMARK  106  A    between atoms: _282  and  _283
REMARK  107  A    between atoms: _282  and  _285
REMARK  108  A    between atoms: _285  and  _286
REMARK  109  A    between atoms: _289  and  _291
REMARK  110  A    between atoms: _291  and  _292
REMARK  111  A    between atoms: _291  and  _294
REMARK  112  A    between atoms: _294  and  _295
REMARK  113  A    between atoms: _297  and  _299
REMARK  114  A    between atoms: _299  and  _300
REMARK  115  A    between atoms: _299  and  _302
REMARK  116  A    between atoms: _302  and  _303
REMARK  117  A    between atoms: _308  and  _310
REMARK  118  A    between atoms: _310  and  _311
REMARK  119  A    between atoms: _310  and  _313
REMARK  120  A    between atoms: _316  and  _318
REMARK  121  A    between atoms: _318  and  _319
REMARK  122  A    between atoms: _318  and  _321
REMARK  123  A    between atoms: _321  and  _322
REMARK  124  A    between atoms: _327  and  _329
REMARK  125  A    between atoms: _329  and  _330
REMARK  126  A    between atoms: _333  and  _335
REMARK  127  A    between atoms: _335  and  _336
REMARK  128  A    between atoms: _335  and  _338
REMARK  129  A    between atoms: _338  and  _339
REMARK  130  A    between atoms: _339  and  _340
REMARK  131  A    between atoms: _340  and  _341
REMARK  132  A    between atoms: _350  and  _352
REMARK  133  A    between atoms: _352  and  _353
REMARK  134  A    between atoms: _352  and  _355
REMARK  135  A    between atoms: _355  and  _356
REMARK  136  A    between atoms: _356  and  _357
REMARK  137  A    between atoms: _360  and  _362
REMARK  138  A    between atoms: _362  and  _363
REMARK  139  A    between atoms: _362  and  _365
REMARK  140  A    between atoms: _365  and  _366
REMARK  141  A    between atoms: _372  and  _374
REMARK  142  A    between atoms: _374  and  _375
REMARK  143  A    between atoms: _374  and  _377
REMARK  144  A    between atoms: _377  and  _378
REMARK  145  A    between atoms: _378  and  _379
REMARK  146  A    between atoms: _379  and  _380
REMARK  147  A    between atoms: _389  and  _391
REMARK  148  A    between atoms: _391  and  _392
REMARK  149  A    between atoms: _391  and  _394
REMARK  150  A    between atoms: _394  and  _395
REMARK  151  A    between atoms: _395  and  _396
REMARK  152  A    between atoms: _396  and  _397
REMARK  153  A    between atoms: _406  and  _408
REMARK  154  A    between atoms: _408  and  _409
REMARK  155  A    between atoms: _408  and  _411
REMARK  156  A    between atoms: _411  and  _412
REMARK  157  A    between atoms: _417  and  _419
REMARK  158  A    between atoms: _419  and  _420
REMARK  159  A    between atoms: _419  and  _422
REMARK  160  A    between atoms: _422  and  _423
REMARK  161  A    between atoms: _426  and  _428
REMARK  162  A    between atoms: _428  and  _429
REMARK  163  A    between atoms: _428  and  _431
REMARK  164  A    between atoms: _434  and  _436
REMARK  165  A    between atoms: _436  and  _437
REMARK  166  A    between atoms: _439  and  _441
REMARK  167  A    between atoms: _441  and  _442
REMARK  168  A    between atoms: _441  and  _444
REMARK  169  A    between atoms: _444  and  _445
REMARK  170  A    between atoms: _448  and  _450
REMARK  171  A    between atoms: _450  and  _451
REMARK  172  A    between atoms: _453  and  _455
REMARK  173  A    between atoms: _455  and  _456
REMARK  174  A    between atoms: _455  and  _458
REMARK  175  A    between atoms: _458  and  _459
REMARK  176  A    between atoms: _464  and  _465
REMARK  177  A    between atoms: _467  and  _469
REMARK  178  A    between atoms: _469  and  _470
REMARK  179  A    between atoms: _469  and  _472
REMARK  180  A    between atoms: _472  and  _473
REMARK  181  A    between atoms: _478  and  _480
REMARK  182  A    between atoms: _480  and  _481
REMARK  183  A    between atoms: _480  and  _483
REMARK  184  A    between atoms: _486  and  _488
REMARK  185  A    between atoms: _488  and  _489
REMARK  186  A    between atoms: _492  and  _494
REMARK  187  A    between atoms: _494  and  _495
REMARK  188  A    between atoms: _494  and  _497
REMARK  189  A    between atoms: _497  and  _498
REMARK  190  A    between atoms: _498  and  _499
REMARK  191  A    between atoms: _499  and  _500
REMARK  192  A    between atoms: _509  and  _511
REMARK  193  A    between atoms: _511  and  _512
REMARK  194  A    between atoms: _511  and  _514
REMARK  195  A    between atoms: _514  and  _515
REMARK  196  A    between atoms: _518  and  _520
REMARK  197  A    between atoms: _520  and  _521
REMARK  198  A    between atoms: _524  and  _526
REMARK  199  A    between atoms: _526  and  _527
REMARK  200  A    between atoms: _530  and  _532
REMARK  201  A    between atoms: _532  and  _533
REMARK  202  A    between atoms: _532  and  _535
REMARK  203  A    between atoms: _535  and  _536
REMARK  204  A    between atoms: _536  and  _537
REMARK                            x       y       z     vdW  Elec       q    Type
REMARK                         _______ _______ _______ _____ _____    ______ ____
ROOT
ATOM      1  CB  HIS A   1     -14.568  43.617  81.893  0.00  0.00    +0.072 C 
ENDROOT
BRANCH   1   2
ATOM      2  CG  HIS A   1     -13.194  43.154  81.521  0.00  0.00    +0.082 A 
ATOM      3  ND1 HIS A   1     -12.069  43.682  82.060  0.00  0.00    -0.227 NA
ATOM      4  CE1 HIS A   1     -10.999  43.082  81.524  0.00  0.00    +0.199 A 
ATOM      5  NE2 HIS A   1     -11.443  42.165  80.618  0.00  0.00    -0.221 NA
ATOM      6  CD2 HIS A   1     -12.778  42.186  80.595  0.00  0.00    +0.115 A 
ENDBRANCH   1   2
BRANCH   1   7
ATOM      7  CA  HIS A   1     -15.593  43.319  80.839  0.00  0.00    +0.139 C 
BRANCH   7   8
ATOM      8  N   HIS A   1     -15.267  44.065  79.649  0.00  0.00    -0.239 NA
ATOM      9  H   HIS A   1     -14.442  44.698  79.662  0.00  0.00    +0.142 HD
ENDBRANCH   7   8
BRANCH   7  10
ATOM     10  C   HIS A   1     -16.962  43.633  81.351  0.00  0.00    +0.224 C 
ATOM     11  O   HIS A   1     -17.706  42.749  81.819  0.00  0.00    -0.287 OA
ENDBRANCH   7  10
ENDBRANCH   1   7
TORSDOF 4
REMARK  Name = ../refined-set-2016/4kiu/4kiu_pocket.pdb
REMARK  204 active torsions:
REMARK  status: ('A' for Active; 'I' for Inactive)
REMARK    1  A    between atoms: _1  and  _3
REMARK    2  A    between atoms: _3  and  _4
REMARK    3  A    between atoms: _3  and  _6
REMARK    4  A    between atoms: _6  and  _7
REMARK    5  A    between atoms: _12  and  _14
REMARK    6  A    between atoms: _14  and  _15
REMARK    7  A    between atoms: _18  and  _19
REMARK    8  A    between atoms: _24  and  _26
REMARK    9  A    between atoms: _26  and  _27
REMARK   10  A    between atoms: _26  and  _29
REMARK   11  A    between atoms: _29  and  _30
REMARK   12  A    between atoms: _35  and  _37
REMARK   13  A    between atoms: _37  and  _38
REMARK   14  A    between atoms: _37  and  _40
REMARK   15  A    between atoms: _40  and  _41
REMARK   16  A    between atoms: _44  and  _46
REMARK   17  A    between atoms: _46  and  _47
REMARK   18  A    between atoms: _49  and  _51
REMARK   19  A    between atoms: _51  and  _52
REMARK   20  A    between atoms: _51  and  _54
REMARK   21  A    between atoms: _54  and  _55
REMARK   22  A    between atoms: _55  and  _56
REMARK   23  A    between atoms: _56  and  _57
REMARK   24  A    between atoms: _66  and  _68
REMARK   25  A    between atoms: _68  and  _69
REMARK   26  A    between atoms: _68  and  _71
REMARK   27  A    between atoms: _71  and  _72
REMARK   28  A    between atoms: _75  and  _77
REMARK   29  A    between atoms: _77  and  _78
REMARK   30  A    between atoms: _82  and  _83
REMARK   31  A    between atoms: _82  and  _85
REMARK   32  A    between atoms: _85  and  _86
REMARK   33  A    between atoms: _86  and  _87
REMARK   34  A    between atoms: _87  and  _88
REMARK   35  A    between atoms: _97  and  _99
REMARK   36  A    between atoms: _99  and  _100
REMARK   37  A    between atoms: _99  and  _102
REMARK   38  A    between atoms: _102  and  _103
REMARK   39  A    between atoms: _103  and  _104
REMARK   40  A    between atoms: _104  and  _105
REMARK   41  A    between atoms: _114  and  _116
REMARK   42  A    between atoms: _116  and  _117
REMARK   43  A    between atoms: _116  and  _119
REMARK   44  A    between atoms: _119  and  _120
REMARK   45  A    between atoms: _120  and  _121
REMARK   46  A    between atoms: _125  and  _126
REMARK   47  A    between atoms: _131  and  _133
REMARK   48  A    between atoms: _133  and  _134
REMARK   49  A    between atoms: _137  and  _139
REMARK   50  A    between atoms: _139  and  _140
REMARK   51  A    between atoms: _139  and  _142
REMARK   52  A    between atoms: _145  and  _147
REMARK   53  A    between atoms: _147  and  _148
REMARK   54  A    between atoms: _147  and  _150
REMARK   55  A    between atoms: _150  and  _151
REMARK   56  A    between atoms: _156  and  _157
REMARK   57  A    between atoms: _159  and  _161
REMARK   58  A    between atoms: _161  and  _162
REMARK   59  A    between atoms: _164  and  _166
REMARK   60  A    between atoms: _166  and  _167
REMARK   61  A    between atoms: _166  and  _169
REMARK   62  A    between atoms: _169  and  _170
REMARK   63  A    between atoms: _173  and  _175
REMARK   64  A    between atoms: _175  and  _176
REMARK   65  A    between atoms: _175  and  _178
REMARK   66  A    between atoms: _178  and  _179
REMARK   67  A    between atoms: _184  and  _186
REMARK   68  A    between atoms: _186  and  _187
REMARK   69  A    between atoms: _186  and  _189
REMARK   70  A    between atoms: _189  and  _190
REMARK   71  A    between atoms: _190  and  _191
REMARK   72  A    between atoms: _196  and  _198
REMARK   73  A    between atoms: _198  and  _199
REMARK   74  A    between atoms: _198  and  _201
REMARK   75  A    between atoms: _201  and  _202
REMARK   76  A    between atoms: _205  and  _207
REMARK   77  A    between atoms: _207  and  _208
REMARK   78  A    between atoms: _207  and  _210
REMARK   79  A    between atoms: _210  and  _211
REMARK   80  A    between atoms: _216  and  _218
REMARK   81  A    between atoms: _218  and  _219
REMARK   82  A    between atoms: _222  and  _224
REMARK   83  A    between atoms: _224  and  _225
REMARK   84  A    between atoms: _227  and  _229
REMARK   85  A    between atoms: _229  and  _230
REMARK   86  A    between atoms: _232  and  _234
REMARK   87  A    between atoms: _234  and  _235
REMARK   88  A    between atoms: _234  and  _237
REMARK   89  A    between atoms: _237  and  _238
REMARK   90  A    between atoms: _241  and  _243
REMARK   91  A    between atoms: _243  and  _244
REMARK   92  A    between atoms: _243  and  _246
REMARK   93  A    between atoms: _246  and  _247
REMARK   94  A    between atoms: _250  and  _252
REMARK   95  A    between atoms: _252  and  _253
REMARK   96  A    between atoms: _252  and  _255
REMARK   97  A    between atoms: _255  and  _256
REMARK   98  A    between atoms: _261  and  _263
REMARK   99  A    between atoms: _263  and  _264
REMARK  100  A    between atoms: _263  and  _266
REMARK  101  A    between atoms: _269  and  _271
REMARK  102  A    between atoms: _271  and  _272
REMARK  103  A    between atoms: _271  and  _274
REMARK  104  A    between atoms: _274  and  _275
REMARK  105  A    between atoms: _280  and  _282
REMARK  106  A    between atoms: _282  and  _283
REMARK  107  A    between atoms: _282  and  _285
REMARK  108  A    between atoms: _285  and  _286
REMARK  109  A    between atoms: _289  and  _291
REMARK  110  A    between atoms: _291  and  _292
REMARK  111  A    between atoms: _291  and  _294
REMARK  112  A    between atoms: _294  and  _295
REMARK  113  A    between atoms: _297  and  _299
REMARK  114  A    between atoms: _299  and  _300
REMARK  115  A    between atoms: _299  and  _302
REMARK  116  A    between atoms: _302  and  _303
REMARK  117  A    between atoms: _308  and  _310
REMARK  118  A    between atoms: _310  and  _311
REMARK  119  A    between atoms: _310  and  _313
REMARK  120  A    between atoms: _316  and  _318
REMARK  121  A    between atoms: _318  and  _319
REMARK  122  A    between atoms: _318  and  _321
REMARK  123  A    between atoms: _321  and  _322
REMARK  124  A    between atoms: _327  and  _329
REMARK  125  A    between atoms: _329  and  _330
REMARK  126  A    between atoms: _333  and  _335
REMARK  127  A    between atoms: _335  and  _336
REMARK  128  A    between atoms: _335  and  _338
REMARK  129  A    between atoms: _338  and  _339
REMARK  130  A    between atoms: _339  and  _340
REMARK  131  A    between atoms: _340  and  _341
REMARK  132  A    between atoms: _350  and  _352
REMARK  133  A    between atoms: _352  and  _353
REMARK  134  A    between atoms: _352  and  _355
REMARK  135  A    between atoms: _355  and  _356
REMARK  136  A    between atoms: _356  and  _357
REMARK  137  A    between atoms: _360  and  _362
REMARK  138  A    between atoms: _362  and  _363
REMARK  139  A    between atoms: _362  and  _365
REMARK  140  A    between atoms: _365  and  _366
REMARK  141  A    between atoms: _372  and  _374
REMARK  142  A    between atoms: _374  and  _375
REMARK  143  A    between atoms: _374  and  _377
REMARK  144  A    between atoms: _377  and  _378
REMARK  145  A    between atoms: _378  and  _379
REMARK  146  A    between atoms: _379  and  _380
REMARK  147  A    between atoms: _389  and  _391
REMARK  148  A    between atoms: _391  and  _392
REMARK  149  A    between atoms: _391  and  _394
REMARK  150  A    between atoms: _394  and  _395
REMARK  151  A    between atoms: _395  and  _396
REMARK  152  A    between atoms: _396  and  _397
REMARK  153  A    between atoms: _406  and  _408
REMARK  154  A    between atoms: _408  and  _409
REMARK  155  A    between atoms: _408  and  _411
REMARK  156  A    between atoms: _411  and  _412
REMARK  157  A    between atoms: _417  and  _419
REMARK  158  A    between atoms: _419  and  _420
REMARK  159  A    between atoms: _419  and  _422
REMARK  160  A    between atoms: _422  and  _423
REMARK  161  A    between atoms: _426  and  _428
REMARK  162  A    between atoms: _428  and  _429
REMARK  163  A    between atoms: _428  and  _431
REMARK  164  A    between atoms: _434  and  _436
REMARK  165  A    between atoms: _436  and  _437
REMARK  166  A    between atoms: _439  and  _441
REMARK  167  A    between atoms: _441  and  _442
REMARK  168  A    between atoms: _441  and  _444
REMARK  169  A    between atoms: _444  and  _445
REMARK  170  A    between atoms: _448  and  _450
REMARK  171  A    between atoms: _450  and  _451
REMARK  172  A    between atoms: _453  and  _455
REMARK  173  A    between atoms: _455  and  _456
REMARK  174  A    between atoms: _455  and  _458
REMARK  175  A    between atoms: _458  and  _459
REMARK  176  A    between atoms: _464  and  _465
REMARK  177  A    between atoms: _467  and  _469
REMARK  178  A    between atoms: _469  and  _470
REMARK  179  A    between atoms: _469  and  _472
REMARK  180  A    between atoms: _472  and  _473
REMARK  181  A    between atoms: _478  and  _480
REMARK  182  A    between atoms: _480  and  _481
REMARK  183  A    between atoms: _480  and  _483
REMARK  184  A    between atoms: _486  and  _488
REMARK  185  A    between atoms: _488  and  _489
REMARK  186  A    between atoms: _492  and  _494
REMARK  187  A    between atoms: _494  and  _495
REMARK  188  A    between atoms: _494  and  _497
REMARK  189  A    between atoms: _497  and  _498
REMARK  190  A    between atoms: _498  and  _499
REMARK  191  A    between atoms: _499  and  _500
REMARK  192  A    between atoms: _509  and  _511
REMARK  193  A    between atoms: _511  and  _512
REMARK  194  A    between atoms: _511  and  _514
REMARK  195  A    between atoms: _514  and  _515
REMARK  196  A    between atoms: _518  and  _520
REMARK  197  A    between atoms: _520  and  _521
REMARK  198  A    between atoms: _524  and  _526
REMARK  199  A    between atoms: _526  and  _527
REMARK  200  A    between atoms: _530  and  _532
REMARK  201  A    between atoms: _532  and  _533
REMARK  202  A    between atoms: _532  and  _535
REMARK  203  A    between atoms: _535  and  _536
REMARK  204  A    between atoms: _536  and  _537
REMARK                            x       y       z     vdW  Elec       q    Type
REMARK                         _______ _______ _______ _____ _____    ______ ____
ROOT
ATOM      1  C   VAL A   1      -5.265  39.720  73.209  0.00  0.00    +0.238 C 
ATOM      2  N   ALA A   2      -4.833  40.563  74.136  0.00  0.00    -0.298 N 
ATOM      3  H   ALA A   2      -3.904  41.013  74.007  0.00  0.00    +0.150 HD
ATOM      4  O   VAL A   1      -6.316  39.128  73.323  0.00  0.00    -0.274 OA
ENDROOT
BRANCH   2   5
ATOM      5  CA  ALA A   2      -5.614  40.890  75.343  0.00  0.00    +0.137 C 
ATOM      6  CB  ALA A   2      -4.910  41.972  76.176  0.00  0.00    +0.030 C 
BRANCH   5   7
ATOM      7  C   ALA A   2      -7.018  41.330  74.978  0.00  0.00    +0.227 C 
ATOM      8  O   ALA A   2      -8.008  40.803  75.511  0.00  0.00    -0.286 OA
ENDBRANCH   5   7
ENDBRANCH   2   5
BRANCH   1   9
ATOM      9  CA  VAL A   1      -4.392  39.524  71.965  0.00  0.00    +0.145 C 
BRANCH   9  10
ATOM     10  CB  VAL A   1      -3.309  38.506  72.280  0.00  0.00    +0.025 C 
ATOM     11  CG2 VAL A   1      -3.922  37.265  72.864  0.00  0.00    +0.002 C 
ATOM     12  CG1 VAL A   1      -2.502  38.161  71.028  0.00  0.00    +0.002 C 
ENDBRANCH   9  10
BRANCH   9  13
ATOM     13  N   VAL A   1      -3.818  40.793  71.431  0.00  0.00    -0.238 NA
ATOM     14  H   VAL A   1      -2.800  40.973  71.547  0.00  0.00    +0.142 HD
ENDBRANCH   9  13
ENDBRANCH   1   9
TORSDOF 5
REMARK  Name = ../refined-set-2016/4kiu/4kiu_pocket.pdb
REMARK  204 active torsions:
REMARK  status: ('A' for Active; 'I' for Inactive)
REMARK    1  A    between atoms: _1  and  _3
REMARK    2  A    between atoms: _3  and  _4
REMARK    3  A    between atoms: _3  and  _6
REMARK    4  A    between atoms: _6  and  _7
REMARK    5  A    between atoms: _12  and  _14
REMARK    6  A    between atoms: _14  and  _15
REMARK    7  A    between atoms: _18  and  _19
REMARK    8  A    between atoms: _24  and  _26
REMARK    9  A    between atoms: _26  and  _27
REMARK   10  A    between atoms: _26  and  _29
REMARK   11  A    between atoms: _29  and  _30
REMARK   12  A    between atoms: _35  and  _37
REMARK   13  A    between atoms: _37  and  _38
REMARK   14  A    between atoms: _37  and  _40
REMARK   15  A    between atoms: _40  and  _41
REMARK   16  A    between atoms: _44  and  _46
REMARK   17  A    between atoms: _46  and  _47
REMARK   18  A    between atoms: _49  and  _51
REMARK   19  A    between atoms: _51  and  _52
REMARK   20  A    between atoms: _51  and  _54
REMARK   21  A    between atoms: _54  and  _55
REMARK   22  A    between atoms: _55  and  _56
REMARK   23  A    between atoms: _56  and  _57
REMARK   24  A    between atoms: _66  and  _68
REMARK   25  A    between atoms: _68  and  _69
REMARK   26  A    between atoms: _68  and  _71
REMARK   27  A    between atoms: _71  and  _72
REMARK   28  A    between atoms: _75  and  _77
REMARK   29  A    between atoms: _77  and  _78
REMARK   30  A    between atoms: _82  and  _83
REMARK   31  A    between atoms: _82  and  _85
REMARK   32  A    between atoms: _85  and  _86
REMARK   33  A    between atoms: _86  and  _87
REMARK   34  A    between atoms: _87  and  _88
REMARK   35  A    between atoms: _97  and  _99
REMARK   36  A    between atoms: _99  and  _100
REMARK   37  A    between atoms: _99  and  _102
REMARK   38  A    between atoms: _102  and  _103
REMARK   39  A    between atoms: _103  and  _104
REMARK   40  A    between atoms: _104  and  _105
REMARK   41  A    between atoms: _114  and  _116
REMARK   42  A    between atoms: _116  and  _117
REMARK   43  A    between atoms: _116  and  _119
REMARK   44  A    between atoms: _119  and  _120
REMARK   45  A    between atoms: _120  and  _121
REMARK   46  A    between atoms: _125  and  _126
REMARK   47  A    between atoms: _131  and  _133
REMARK   48  A    between atoms: _133  and  _134
REMARK   49  A    between atoms: _137  and  _139
REMARK   50  A    between atoms: _139  and  _140
REMARK   51  A    between atoms: _139  and  _142
REMARK   52  A    between atoms: _145  and  _147
REMARK   53  A    between atoms: _147  and  _148
REMARK   54  A    between atoms: _147  and  _150
REMARK   55  A    between atoms: _150  and  _151
REMARK   56  A    between atoms: _156  and  _157
REMARK   57  A    between atoms: _159  and  _161
REMARK   58  A    between atoms: _161  and  _162
REMARK   59  A    between atoms: _164  and  _166
REMARK   60  A    between atoms: _166  and  _167
REMARK   61  A    between atoms: _166  and  _169
REMARK   62  A    between atoms: _169  and  _170
REMARK   63  A    between atoms: _173  and  _175
REMARK   64  A    between atoms: _175  and  _176
REMARK   65  A    between atoms: _175  and  _178
REMARK   66  A    between atoms: _178  and  _179
REMARK   67  A    between atoms: _184  and  _186
REMARK   68  A    between atoms: _186  and  _187
REMARK   69  A    between atoms: _186  and  _189
REMARK   70  A    between atoms: _189  and  _190
REMARK   71  A    between atoms: _190  and  _191
REMARK   72  A    between atoms: _196  and  _198
REMARK   73  A    between atoms: _198  and  _199
REMARK   74  A    between atoms: _198  and  _201
REMARK   75  A    between atoms: _201  and  _202
REMARK   76  A    between atoms: _205  and  _207
REMARK   77  A    between atoms: _207  and  _208
REMARK   78  A    between atoms: _207  and  _210
REMARK   79  A    between atoms: _210  and  _211
REMARK   80  A    between atoms: _216  and  _218
REMARK   81  A    between atoms: _218  and  _219
REMARK   82  A    between atoms: _222  and  _224
REMARK   83  A    between atoms: _224  and  _225
REMARK   84  A    between atoms: _227  and  _229
REMARK   85  A    between atoms: _229  and  _230
REMARK   86  A    between atoms: _232  and  _234
REMARK   87  A    between atoms: _234  and  _235
REMARK   88  A    between atoms: _234  and  _237
REMARK   89  A    between atoms: _237  and  _238
REMARK   90  A    between atoms: _241  and  _243
REMARK   91  A    between atoms: _243  and  _244
REMARK   92  A    between atoms: _243  and  _246
REMARK   93  A    between atoms: _246  and  _247
REMARK   94  A    between atoms: _250  and  _252
REMARK   95  A    between atoms: _252  and  _253
REMARK   96  A    between atoms: _252  and  _255
REMARK   97  A    between atoms: _255  and  _256
REMARK   98  A    between atoms: _261  and  _263
REMARK   99  A    between atoms: _263  and  _264
REMARK  100  A    between atoms: _263  and  _266
REMARK  101  A    between atoms: _269  and  _271
REMARK  102  A    between atoms: _271  and  _272
REMARK  103  A    between atoms: _271  and  _274
REMARK  104  A    between atoms: _274  and  _275
REMARK  105  A    between atoms: _280  and  _282
REMARK  106  A    between atoms: _282  and  _283
REMARK  107  A    between atoms: _282  and  _285
REMARK  108  A    between atoms: _285  and  _286
REMARK  109  A    between atoms: _289  and  _291
REMARK  110  A    between atoms: _291  and  _292
REMARK  111  A    between atoms: _291  and  _294
REMARK  112  A    between atoms: _294  and  _295
REMARK  113  A    between atoms: _297  and  _299
REMARK  114  A    between atoms: _299  and  _300
REMARK  115  A    between atoms: _299  and  _302
REMARK  116  A    between atoms: _302  and  _303
REMARK  117  A    between atoms: _308  and  _310
REMARK  118  A    between atoms: _310  and  _311
REMARK  119  A    between atoms: _310  and  _313
REMARK  120  A    between atoms: _316  and  _318
REMARK  121  A    between atoms: _318  and  _319
REMARK  122  A    between atoms: _318  and  _321
REMARK  123  A    between atoms: _321  and  _322
REMARK  124  A    between atoms: _327  and  _329
REMARK  125  A    between atoms: _329  and  _330
REMARK  126  A    between atoms: _333  and  _335
REMARK  127  A    between atoms: _335  and  _336
REMARK  128  A    between atoms: _335  and  _338
REMARK  129  A    between atoms: _338  and  _339
REMARK  130  A    between atoms: _339  and  _340
REMARK  131  A    between atoms: _340  and  _341
REMARK  132  A    between atoms: _350  and  _352
REMARK  133  A    between atoms: _352  and  _353
REMARK  134  A    between atoms: _352  and  _355
REMARK  135  A    between atoms: _355  and  _356
REMARK  136  A    between atoms: _356  and  _357
REMARK  137  A    between atoms: _360  and  _362
REMARK  138  A    between atoms: _362  and  _363
REMARK  139  A    between atoms: _362  and  _365
REMARK  140  A    between atoms: _365  and  _366
REMARK  141  A    between atoms: _372  and  _374
REMARK  142  A    between atoms: _374  and  _375
REMARK  143  A    between atoms: _374  and  _377
REMARK  144  A    between atoms: _377  and  _378
REMARK  145  A    between atoms: _378  and  _379
REMARK  146  A    between atoms: _379  and  _380
REMARK  147  A    between atoms: _389  and  _391
REMARK  148  A    between atoms: _391  and  _392
REMARK  149  A    between atoms: _391  and  _394
REMARK  150  A    between atoms: _394  and  _395
REMARK  151  A    between atoms: _395  and  _396
REMARK  152  A    between atoms: _396  and  _397
REMARK  153  A    between atoms: _406  and  _408
REMARK  154  A    between atoms: _408  and  _409
REMARK  155  A    between atoms: _408  and  _411
REMARK  156  A    between atoms: _411  and  _412
REMARK  157  A    between atoms: _417  and  _419
REMARK  158  A    between atoms: _419  and  _420
REMARK  159  A    between atoms: _419  and  _422
REMARK  160  A    between atoms: _422  and  _423
REMARK  161  A    between atoms: _426  and  _428
REMARK  162  A    between atoms: _428  and  _429
REMARK  163  A    between atoms: _428  and  _431
REMARK  164  A    between atoms: _434  and  _436
REMARK  165  A    between atoms: _436  and  _437
REMARK  166  A    between atoms: _439  and  _441
REMARK  167  A    between atoms: _441  and  _442
REMARK  168  A    between atoms: _441  and  _444
REMARK  169  A    between atoms: _444  and  _445
REMARK  170  A    between atoms: _448  and  _450
REMARK  171  A    between atoms: _450  and  _451
REMARK  172  A    between atoms: _453  and  _455
REMARK  173  A    between atoms: _455  and  _456
REMARK  174  A    between atoms: _455  and  _458
REMARK  175  A    between atoms: _458  and  _459
REMARK  176  A    between atoms: _464  and  _465
REMARK  177  A    between atoms: _467  and  _469
REMARK  178  A    between atoms: _469  and  _470
REMARK  179  A    between atoms: _469  and  _472
REMARK  180  A    between atoms: _472  and  _473
REMARK  181  A    between atoms: _478  and  _480
REMARK  182  A    between atoms: _480  and  _481
REMARK  183  A    between atoms: _480  and  _483
REMARK  184  A    between atoms: _486  and  _488
REMARK  185  A    between atoms: _488  and  _489
REMARK  186  A    between atoms: _492  and  _494
REMARK  187  A    between atoms: _494  and  _495
REMARK  188  A    between atoms: _494  and  _497
REMARK  189  A    between atoms: _497  and  _498
REMARK  190  A    between atoms: _498  and  _499
REMARK  191  A    between atoms: _499  and  _500
REMARK  192  A    between atoms: _509  and  _511
REMARK  193  A    between atoms: _511  and  _512
REMARK  194  A    between atoms: _511  and  _514
REMARK  195  A    between atoms: _514  and  _515
REMARK  196  A    between atoms: _518  and  _520
REMARK  197  A    between atoms: _520  and  _521
REMARK  198  A    between atoms: _524  and  _526
REMARK  199  A    between atoms: _526  and  _527
REMARK  200  A    between atoms: _530  and  _532
REMARK  201  A    between atoms: _532  and  _533
REMARK  202  A    between atoms: _532  and  _535
REMARK  203  A    between atoms: _535  and  _536
REMARK  204  A    between atoms: _536  and  _537
REMARK                            x       y       z     vdW  Elec       q    Type
REMARK                         _______ _______ _______ _____ _____    ______ ____
ROOT
ATOM      1  C   ARG A   1      -9.528  38.394  73.115  0.00  0.00    +0.238 C 
ATOM      2  N   ASP A   2      -8.655  38.320  74.113  0.00  0.00    -0.297 N 
ATOM      3  H   ASP A   2      -7.761  38.851  74.080  0.00  0.00    +0.150 HD
ATOM      4  O   ARG A   1     -10.607  37.797  73.150  0.00  0.00    -0.274 OA
ENDROOT
BRANCH   1   5
ATOM      5  CA  ARG A   1      -9.134  39.238  71.876  0.00  0.00    +0.145 C 
BRANCH   5   6
ATOM      6  N   ARG A   1      -8.584  40.574  72.196  0.00  0.00    -0.238 NA
ATOM      7  H   ARG A   1      -7.725  40.903  71.711  0.00  0.00    +0.142 HD
ENDBRANCH   5   6
BRANCH   5   8
ATOM      8  CB  ARG A   1      -8.160  38.428  71.021  0.00  0.00    +0.030 C 
BRANCH   8   9
ATOM      9  CG  ARG A   1      -8.710  37.124  70.456  0.00  0.00    +0.045 C 
BRANCH   9  10
ATOM     10  CD  ARG A   1      -7.553  36.240  70.116  0.00  0.00    +0.174 C 
BRANCH  10  11
ATOM     11  NE  ARG A   1      -7.959  34.886  69.728  0.00  0.00    -0.265 N 
ATOM     12  HE  ARG A   1      -8.203  34.212  70.482  0.00  0.00    +0.259 HD
ATOM     13  CZ  ARG A   1      -8.033  34.467  68.458  0.00  0.00    +0.342 C 
ATOM     14  NH2 ARG A   1      -8.364  33.215  68.203  0.00  0.00    -0.292 N 
ATOM     15 HH21 ARG A   1      -8.565  32.561  68.986  0.00  0.00    +0.255 HD
ATOM     16 HH22 ARG A   1      -8.423  32.883  67.219  0.00  0.00    +0.255 HD
ATOM     17  NH1 ARG A   1      -7.795  35.300  67.446  0.00  0.00    -0.292 N 
ATOM     18 HH11 ARG A   1      -7.547  36.292  67.636  0.00  0.00    +0.255 HD
ATOM     19 HH12 ARG A   1      -7.857  34.958  66.466  0.00  0.00    +0.255 HD
ENDBRANCH  10  11
ENDBRANCH   9  10
ENDBRANCH   8   9
ENDBRANCH   5   8
ENDBRANCH   1   5
BRANCH   2  20
ATOM     20  CA  ASP A   2      -8.982  37.476  75.255  0.00  0.00    +0.160 C 
BRANCH  20  21
ATOM     21  C   ASP A   2     -10.128  38.091  76.046  0.00  0.00    +0.241 C 
ATOM     22  O   ASP A   2     -11.017  37.360  76.501  0.00  0.00    -0.273 OA
ATOM     23  N   ALA A   3     -10.139  39.425  76.162  0.00  0.00    -0.298 N 
ATOM     24  H   ALA A   3      -9.303  39.972  75.872  0.00  0.00    +0.150 HD
BRANCH  23  25
ATOM     25  CA  ALA A   3     -11.309  40.124  76.690  0.00  0.00    +0.137 C 
ATOM     26  CB  ALA A   3     -11.114  41.624  76.727  0.00  0.00    +0.030 C 
BRANCH  25  27
ATOM     27  C   ALA A   3     -12.637  39.779  76.021  0.00  0.00    +0.227 C 
ATOM     28  O   ALA A   3     -13.557  39.398  76.721  0.00  0.00    -0.286 OA
ENDBRANCH  25  27
ENDBRANCH  23  25
ENDBRANCH  20  21
BRANCH  20  29
ATOM     29  CB  ASP A   2      -7.781  37.232  76.115  0.00  0.00    +0.143 C 
BRANCH  29  30
ATOM     30  CG  ASP A   2      -6.711  36.416  75.408  0.00  0.00    +0.367 C 
ATOM     31  OD2 ASP A   2      -5.511  36.660  75.694  0.00  0.00    -0.246 OA
ATOM     32  OD1 ASP A   2      -7.035  35.535  74.566  0.00  0.00    -0.246 OA
ENDBRANCH  29  30
ENDBRANCH  20  29
ENDBRANCH   2  20
TORSDOF 12
REMARK  Name = ../refined-set-2016/4kiu/4kiu_pocket.pdb
REMARK  204 active torsions:
REMARK  status: ('A' for Active; 'I' for Inactive)
REMARK    1  A    between atoms: _1  and  _3
REMARK    2  A    between atoms: _3  and  _4
REMARK    3  A    between atoms: _3  and  _6
REMARK    4  A    between atoms: _6  and  _7
REMARK    5  A    between atoms: _12  and  _14
REMARK    6  A    between atoms: _14  and  _15
REMARK    7  A    between atoms: _18  and  _19
REMARK    8  A    between atoms: _24  and  _26
REMARK    9  A    between atoms: _26  and  _27
REMARK   10  A    between atoms: _26  and  _29
REMARK   11  A    between atoms: _29  and  _30
REMARK   12  A    between atoms: _35  and  _37
REMARK   13  A    between atoms: _37  and  _38
REMARK   14  A    between atoms: _37  and  _40
REMARK   15  A    between atoms: _40  and  _41
REMARK   16  A    between atoms: _44  and  _46
REMARK   17  A    between atoms: _46  and  _47
REMARK   18  A    between atoms: _49  and  _51
REMARK   19  A    between atoms: _51  and  _52
REMARK   20  A    between atoms: _51  and  _54
REMARK   21  A    between atoms: _54  and  _55
REMARK   22  A    between atoms: _55  and  _56
REMARK   23  A    between atoms: _56  and  _57
REMARK   24  A    between atoms: _66  and  _68
REMARK   25  A    between atoms: _68  and  _69
REMARK   26  A    between atoms: _68  and  _71
REMARK   27  A    between atoms: _71  and  _72
REMARK   28  A    between atoms: _75  and  _77
REMARK   29  A    between atoms: _77  and  _78
REMARK   30  A    between atoms: _82  and  _83
REMARK   31  A    between atoms: _82  and  _85
REMARK   32  A    between atoms: _85  and  _86
REMARK   33  A    between atoms: _86  and  _87
REMARK   34  A    between atoms: _87  and  _88
REMARK   35  A    between atoms: _97  and  _99
REMARK   36  A    between atoms: _99  and  _100
REMARK   37  A    between atoms: _99  and  _102
REMARK   38  A    between atoms: _102  and  _103
REMARK   39  A    between atoms: _103  and  _104
REMARK   40  A    between atoms: _104  and  _105
REMARK   41  A    between atoms: _114  and  _116
REMARK   42  A    between atoms: _116  and  _117
REMARK   43  A    between atoms: _116  and  _119
REMARK   44  A    between atoms: _119  and  _120
REMARK   45  A    between atoms: _120  and  _121
REMARK   46  A    between atoms: _125  and  _126
REMARK   47  A    between atoms: _131  and  _133
REMARK   48  A    between atoms: _133  and  _134
REMARK   49  A    between atoms: _137  and  _139
REMARK   50  A    between atoms: _139  and  _140
REMARK   51  A    between atoms: _139  and  _142
REMARK   52  A    between atoms: _145  and  _147
REMARK   53  A    between atoms: _147  and  _148
REMARK   54  A    between atoms: _147  and  _150
REMARK   55  A    between atoms: _150  and  _151
REMARK   56  A    between atoms: _156  and  _157
REMARK   57  A    between atoms: _159  and  _161
REMARK   58  A    between atoms: _161  and  _162
REMARK   59  A    between atoms: _164  and  _166
REMARK   60  A    between atoms: _166  and  _167
REMARK   61  A    between atoms: _166  and  _169
REMARK   62  A    between atoms: _169  and  _170
REMARK   63  A    between atoms: _173  and  _175
REMARK   64  A    between atoms: _175  and  _176
REMARK   65  A    between atoms: _175  and  _178
REMARK   66  A    between atoms: _178  and  _179
REMARK   67  A    between atoms: _184  and  _186
REMARK   68  A    between atoms: _186  and  _187
REMARK   69  A    between atoms: _186  and  _189
REMARK   70  A    between atoms: _189  and  _190
REMARK   71  A    between atoms: _190  and  _191
REMARK   72  A    between atoms: _196  and  _198
REMARK   73  A    between atoms: _198  and  _199
REMARK   74  A    between atoms: _198  and  _201
REMARK   75  A    between atoms: _201  and  _202
REMARK   76  A    between atoms: _205  and  _207
REMARK   77  A    between atoms: _207  and  _208
REMARK   78  A    between atoms: _207  and  _210
REMARK   79  A    between atoms: _210  and  _211
REMARK   80  A    between atoms: _216  and  _218
REMARK   81  A    between atoms: _218  and  _219
REMARK   82  A    between atoms: _222  and  _224
REMARK   83  A    between atoms: _224  and  _225
REMARK   84  A    between atoms: _227  and  _229
REMARK   85  A    between atoms: _229  and  _230
REMARK   86  A    between atoms: _232  and  _234
REMARK   87  A    between atoms: _234  and  _235
REMARK   88  A    between atoms: _234  and  _237
REMARK   89  A    between atoms: _237  and  _238
REMARK   90  A    between atoms: _241  and  _243
REMARK   91  A    between atoms: _243  and  _244
REMARK   92  A    between atoms: _243  and  _246
REMARK   93  A    between atoms: _246  and  _247
REMARK   94  A    between atoms: _250  and  _252
REMARK   95  A    between atoms: _252  and  _253
REMARK   96  A    between atoms: _252  and  _255
REMARK   97  A    between atoms: _255  and  _256
REMARK   98  A    between atoms: _261  and  _263
REMARK   99  A    between atoms: _263  and  _264
REMARK  100  A    between atoms: _263  and  _266
REMARK  101  A    between atoms: _269  and  _271
REMARK  102  A    between atoms: _271  and  _272
REMARK  103  A    between atoms: _271  and  _274
REMARK  104  A    between atoms: _274  and  _275
REMARK  105  A    between atoms: _280  and  _282
REMARK  106  A    between atoms: _282  and  _283
REMARK  107  A    between atoms: _282  and  _285
REMARK  108  A    between atoms: _285  and  _286
REMARK  109  A    between atoms: _289  and  _291
REMARK  110  A    between atoms: _291  and  _292
REMARK  111  A    between atoms: _291  and  _294
REMARK  112  A    between atoms: _294  and  _295
REMARK  113  A    between atoms: _297  and  _299
REMARK  114  A    between atoms: _299  and  _300
REMARK  115  A    between atoms: _299  and  _302
REMARK  116  A    between atoms: _302  and  _303
REMARK  117  A    between atoms: _308  and  _310
REMARK  118  A    between atoms: _310  and  _311
REMARK  119  A    between atoms: _310  and  _313
REMARK  120  A    between atoms: _316  and  _318
REMARK  121  A    between atoms: _318  and  _319
REMARK  122  A    between atoms: _318  and  _321
REMARK  123  A    between atoms: _321  and  _322
REMARK  124  A    between atoms: _327  and  _329
REMARK  125  A    between atoms: _329  and  _330
REMARK  126  A    between atoms: _333  and  _335
REMARK  127  A    between atoms: _335  and  _336
REMARK  128  A    between atoms: _335  and  _338
REMARK  129  A    between atoms: _338  and  _339
REMARK  130  A    between atoms: _339  and  _340
REMARK  131  A    between atoms: _340  and  _341
REMARK  132  A    between atoms: _350  and  _352
REMARK  133  A    between atoms: _352  and  _353
REMARK  134  A    between atoms: _352  and  _355
REMARK  135  A    between atoms: _355  and  _356
REMARK  136  A    between atoms: _356  and  _357
REMARK  137  A    between atoms: _360  and  _362
REMARK  138  A    between atoms: _362  and  _363
REMARK  139  A    between atoms: _362  and  _365
REMARK  140  A    between atoms: _365  and  _366
REMARK  141  A    between atoms: _372  and  _374
REMARK  142  A    between atoms: _374  and  _375
REMARK  143  A    between atoms: _374  and  _377
REMARK  144  A    between atoms: _377  and  _378
REMARK  145  A    between atoms: _378  and  _379
REMARK  146  A    between atoms: _379  and  _380
REMARK  147  A    between atoms: _389  and  _391
REMARK  148  A    between atoms: _391  and  _392
REMARK  149  A    between atoms: _391  and  _394
REMARK  150  A    between atoms: _394  and  _395
REMARK  151  A    between atoms: _395  and  _396
REMARK  152  A    between atoms: _396  and  _397
REMARK  153  A    between atoms: _406  and  _408
REMARK  154  A    between atoms: _408  and  _409
REMARK  155  A    between atoms: _408  and  _411
REMARK  156  A    between atoms: _411  and  _412
REMARK  157  A    between atoms: _417  and  _419
REMARK  158  A    between atoms: _419  and  _420
REMARK  159  A    between atoms: _419  and  _422
REMARK  160  A    between atoms: _422  and  _423
REMARK  161  A    between atoms: _426  and  _428
REMARK  162  A    between atoms: _428  and  _429
REMARK  163  A    between atoms: _428  and  _431
REMARK  164  A    between atoms: _434  and  _436
REMARK  165  A    between atoms: _436  and  _437
REMARK  166  A    between atoms: _439  and  _441
REMARK  167  A    between atoms: _441  and  _442
REMARK  168  A    between atoms: _441  and  _444
REMARK  169  A    between atoms: _444  and  _445
REMARK  170  A    between atoms: _448  and  _450
REMARK  171  A    between atoms: _450  and  _451
REMARK  172  A    between atoms: _453  and  _455
REMARK  173  A    between atoms: _455  and  _456
REMARK  174  A    between atoms: _455  and  _458
REMARK  175  A    between atoms: _458  and  _459
REMARK  176  A    between atoms: _464  and  _465
REMARK  177  A    between atoms: _467  and  _469
REMARK  178  A    between atoms: _469  and  _470
REMARK  179  A    between atoms: _469  and  _472
REMARK  180  A    between atoms: _472  and  _473
REMARK  181  A    between atoms: _478  and  _480
REMARK  182  A    between atoms: _480  and  _481
REMARK  183  A    between atoms: _480  and  _483
REMARK  184  A    between atoms: _486  and  _488
REMARK  185  A    between atoms: _488  and  _489
REMARK  186  A    between atoms: _492  and  _494
REMARK  187  A    between atoms: _494  and  _495
REMARK  188  A    between atoms: _494  and  _497
REMARK  189  A    between atoms: _497  and  _498
REMARK  190  A    between atoms: _498  and  _499
REMARK  191  A    between atoms: _499  and  _500
REMARK  192  A    between atoms: _509  and  _511
REMARK  193  A    between atoms: _511  and  _512
REMARK  194  A    between atoms: _511  and  _514
REMARK  195  A    between atoms: _514  and  _515
REMARK  196  A    between atoms: _518  and  _520
REMARK  197  A    between atoms: _520  and  _521
REMARK  198  A    between atoms: _524  and  _526
REMARK  199  A    between atoms: _526  and  _527
REMARK  200  A    between atoms: _530  and  _532
REMARK  201  A    between atoms: _532  and  _533
REMARK  202  A    between atoms: _532  and  _535
REMARK  203  A    between atoms: _535  and  _536
REMARK  204  A    between atoms: _536  and  _537
REMARK                            x       y       z     vdW  Elec       q    Type
REMARK                         _______ _______ _______ _____ _____    ______ ____
ROOT
ATOM      1  C   ALA A   1     -14.765  35.463  75.248  0.00  0.00    +0.238 C 
ATOM      2  N   GLU A   2     -14.745  36.253  76.308  0.00  0.00    -0.298 N 
ATOM      3  H   GLU A   2     -14.055  37.031  76.335  0.00  0.00    +0.150 HD
ATOM      4  O   ALA A   1     -15.594  34.556  75.098  0.00  0.00    -0.274 OA
ENDROOT
BRANCH   1   5
ATOM      5  CA  ALA A   1     -13.722  35.772  74.159  0.00  0.00    +0.145 C 
ATOM      6  CB  ALA A   1     -12.450  34.958  74.354  0.00  0.00    +0.028 C 
BRANCH   5   7
ATOM      7  N   ALA A   1     -13.426  37.196  74.127  0.00  0.00    -0.238 NA
ATOM      8  H   ALA A   1     -12.444  37.526  74.217  0.00  0.00    +0.142 HD
ENDBRANCH   5   7
ENDBRANCH   1   5
BRANCH   2   9
ATOM      9  CA  GLU A   2     -15.639  36.084  77.431  0.00  0.00    +0.137 C 
BRANCH   9  10
ATOM     10  C   GLU A   2     -17.078  36.553  77.224  0.00  0.00    +0.227 C 
ATOM     11  O   GLU A   2     -17.914  36.233  78.033  0.00  0.00    -0.286 OA
ENDBRANCH   9  10
BRANCH   9  12
ATOM     12  CB  GLU A   2     -15.037  36.777  78.674  0.00  0.00    +0.039 C 
BRANCH  12  13
ATOM     13  CG  GLU A   2     -15.958  36.878  79.888  0.00  0.00    +0.116 C 
BRANCH  13  14
ATOM     14  CD  GLU A   2     -15.306  37.535  81.111  0.00  0.00    +0.365 C 
ATOM     15  OE2 GLU A   2     -15.991  37.603  82.175  0.00  0.00    -0.246 OA
ATOM     16  OE1 GLU A   2     -14.120  37.967  81.024  0.00  0.00    -0.246 OA
ENDBRANCH  13  14
ENDBRANCH  12  13
ENDBRANCH   9  12
ENDBRANCH   2   9
TORSDOF 7
REMARK  Name = ../refined-set-2016/4kiu/4kiu_pocket.pdb
REMARK  204 active torsions:
REMARK  status: ('A' for Active; 'I' for Inactive)
REMARK    1  A    between atoms: _1  and  _3
REMARK    2  A    between atoms: _3  and  _4
REMARK    3  A    between atoms: _3  and  _6
REMARK    4  A    between atoms: _6  and  _7
REMARK    5  A    between atoms: _12  and  _14
REMARK    6  A    between atoms: _14  and  _15
REMARK    7  A    between atoms: _18  and  _19
REMARK    8  A    between atoms: _24  and  _26
REMARK    9  A    between atoms: _26  and  _27
REMARK   10  A    between atoms: _26  and  _29
REMARK   11  A    between atoms: _29  and  _30
REMARK   12  A    between atoms: _35  and  _37
REMARK   13  A    between atoms: _37  and  _38
REMARK   14  A    between atoms: _37  and  _40
REMARK   15  A    between atoms: _40  and  _41
REMARK   16  A    between atoms: _44  and  _46
REMARK   17  A    between atoms: _46  and  _47
REMARK   18  A    between atoms: _49  and  _51
REMARK   19  A    between atoms: _51  and  _52
REMARK   20  A    between atoms: _51  and  _54
REMARK   21  A    between atoms: _54  and  _55
REMARK   22  A    between atoms: _55  and  _56
REMARK   23  A    between atoms: _56  and  _57
REMARK   24  A    between atoms: _66  and  _68
REMARK   25  A    between atoms: _68  and  _69
REMARK   26  A    between atoms: _68  and  _71
REMARK   27  A    between atoms: _71  and  _72
REMARK   28  A    between atoms: _75  and  _77
REMARK   29  A    between atoms: _77  and  _78
REMARK   30  A    between atoms: _82  and  _83
REMARK   31  A    between atoms: _82  and  _85
REMARK   32  A    between atoms: _85  and  _86
REMARK   33  A    between atoms: _86  and  _87
REMARK   34  A    between atoms: _87  and  _88
REMARK   35  A    between atoms: _97  and  _99
REMARK   36  A    between atoms: _99  and  _100
REMARK   37  A    between atoms: _99  and  _102
REMARK   38  A    between atoms: _102  and  _103
REMARK   39  A    between atoms: _103  and  _104
REMARK   40  A    between atoms: _104  and  _105
REMARK   41  A    between atoms: _114  and  _116
REMARK   42  A    between atoms: _116  and  _117
REMARK   43  A    between atoms: _116  and  _119
REMARK   44  A    between atoms: _119  and  _120
REMARK   45  A    between atoms: _120  and  _121
REMARK   46  A    between atoms: _125  and  _126
REMARK   47  A    between atoms: _131  and  _133
REMARK   48  A    between atoms: _133  and  _134
REMARK   49  A    between atoms: _137  and  _139
REMARK   50  A    between atoms: _139  and  _140
REMARK   51  A    between atoms: _139  and  _142
REMARK   52  A    between atoms: _145  and  _147
REMARK   53  A    between atoms: _147  and  _148
REMARK   54  A    between atoms: _147  and  _150
REMARK   55  A    between atoms: _150  and  _151
REMARK   56  A    between atoms: _156  and  _157
REMARK   57  A    between atoms: _159  and  _161
REMARK   58  A    between atoms: _161  and  _162
REMARK   59  A    between atoms: _164  and  _166
REMARK   60  A    between atoms: _166  and  _167
REMARK   61  A    between atoms: _166  and  _169
REMARK   62  A    between atoms: _169  and  _170
REMARK   63  A    between atoms: _173  and  _175
REMARK   64  A    between atoms: _175  and  _176
REMARK   65  A    between atoms: _175  and  _178
REMARK   66  A    between atoms: _178  and  _179
REMARK   67  A    between atoms: _184  and  _186
REMARK   68  A    between atoms: _186  and  _187
REMARK   69  A    between atoms: _186  and  _189
REMARK   70  A    between atoms: _189  and  _190
REMARK   71  A    between atoms: _190  and  _191
REMARK   72  A    between atoms: _196  and  _198
REMARK   73  A    between atoms: _198  and  _199
REMARK   74  A    between atoms: _198  and  _201
REMARK   75  A    between atoms: _201  and  _202
REMARK   76  A    between atoms: _205  and  _207
REMARK   77  A    between atoms: _207  and  _208
REMARK   78  A    between atoms: _207  and  _210
REMARK   79  A    between atoms: _210  and  _211
REMARK   80  A    between atoms: _216  and  _218
REMARK   81  A    between atoms: _218  and  _219
REMARK   82  A    between atoms: _222  and  _224
REMARK   83  A    between atoms: _224  and  _225
REMARK   84  A    between atoms: _227  and  _229
REMARK   85  A    between atoms: _229  and  _230
REMARK   86  A    between atoms: _232  and  _234
REMARK   87  A    between atoms: _234  and  _235
REMARK   88  A    between atoms: _234  and  _237
REMARK   89  A    between atoms: _237  and  _238
REMARK   90  A    between atoms: _241  and  _243
REMARK   91  A    between atoms: _243  and  _244
REMARK   92  A    between atoms: _243  and  _246
REMARK   93  A    between atoms: _246  and  _247
REMARK   94  A    between atoms: _250  and  _252
REMARK   95  A    between atoms: _252  and  _253
REMARK   96  A    between atoms: _252  and  _255
REMARK   97  A    between atoms: _255  and  _256
REMARK   98  A    between atoms: _261  and  _263
REMARK   99  A    between atoms: _263  and  _264
REMARK  100  A    between atoms: _263  and  _266
REMARK  101  A    between atoms: _269  and  _271
REMARK  102  A    between atoms: _271  and  _272
REMARK  103  A    between atoms: _271  and  _274
REMARK  104  A    between atoms: _274  and  _275
REMARK  105  A    between atoms: _280  and  _282
REMARK  106  A    between atoms: _282  and  _283
REMARK  107  A    between atoms: _282  and  _285
REMARK  108  A    between atoms: _285  and  _286
REMARK  109  A    between atoms: _289  and  _291
REMARK  110  A    between atoms: _291  and  _292
REMARK  111  A    between atoms: _291  and  _294
REMARK  112  A    between atoms: _294  and  _295
REMARK  113  A    between atoms: _297  and  _299
REMARK  114  A    between atoms: _299  and  _300
REMARK  115  A    between atoms: _299  and  _302
REMARK  116  A    between atoms: _302  and  _303
REMARK  117  A    between atoms: _308  and  _310
REMARK  118  A    between atoms: _310  and  _311
REMARK  119  A    between atoms: _310  and  _313
REMARK  120  A    between atoms: _316  and  _318
REMARK  121  A    between atoms: _318  and  _319
REMARK  122  A    between atoms: _318  and  _321
REMARK  123  A    between atoms: _321  and  _322
REMARK  124  A    between atoms: _327  and  _329
REMARK  125  A    between atoms: _329  and  _330
REMARK  126  A    between atoms: _333  and  _335
REMARK  127  A    between atoms: _335  and  _336
REMARK  128  A    between atoms: _335  and  _338
REMARK  129  A    between atoms: _338  and  _339
REMARK  130  A    between atoms: _339  and  _340
REMARK  131  A    between atoms: _340  and  _341
REMARK  132  A    between atoms: _350  and  _352
REMARK  133  A    between atoms: _352  and  _353
REMARK  134  A    between atoms: _352  and  _355
REMARK  135  A    between atoms: _355  and  _356
REMARK  136  A    between atoms: _356  and  _357
REMARK  137  A    between atoms: _360  and  _362
REMARK  138  A    between atoms: _362  and  _363
REMARK  139  A    between atoms: _362  and  _365
REMARK  140  A    between atoms: _365  and  _366
REMARK  141  A    between atoms: _372  and  _374
REMARK  142  A    between atoms: _374  and  _375
REMARK  143  A    between atoms: _374  and  _377
REMARK  144  A    between atoms: _377  and  _378
REMARK  145  A    between atoms: _378  and  _379
REMARK  146  A    between atoms: _379  and  _380
REMARK  147  A    between atoms: _389  and  _391
REMARK  148  A    between atoms: _391  and  _392
REMARK  149  A    between atoms: _391  and  _394
REMARK  150  A    between atoms: _394  and  _395
REMARK  151  A    between atoms: _395  and  _396
REMARK  152  A    between atoms: _396  and  _397
REMARK  153  A    between atoms: _406  and  _408
REMARK  154  A    between atoms: _408  and  _409
REMARK  155  A    between atoms: _408  and  _411
REMARK  156  A    between atoms: _411  and  _412
REMARK  157  A    between atoms: _417  and  _419
REMARK  158  A    between atoms: _419  and  _420
REMARK  159  A    between atoms: _419  and  _422
REMARK  160  A    between atoms: _422  and  _423
REMARK  161  A    between atoms: _426  and  _428
REMARK  162  A    between atoms: _428  and  _429
REMARK  163  A    between atoms: _428  and  _431
REMARK  164  A    between atoms: _434  and  _436
REMARK  165  A    between atoms: _436  and  _437
REMARK  166  A    between atoms: _439  and  _441
REMARK  167  A    between atoms: _441  and  _442
REMARK  168  A    between atoms: _441  and  _444
REMARK  169  A    between atoms: _444  and  _445
REMARK  170  A    between atoms: _448  and  _450
REMARK  171  A    between atoms: _450  and  _451
REMARK  172  A    between atoms: _453  and  _455
REMARK  173  A    between atoms: _455  and  _456
REMARK  174  A    between atoms: _455  and  _458
REMARK  175  A    between atoms: _458  and  _459
REMARK  176  A    between atoms: _464  and  _465
REMARK  177  A    between atoms: _467  and  _469
REMARK  178  A    between atoms: _469  and  _470
REMARK  179  A    between atoms: _469  and  _472
REMARK  180  A    between atoms: _472  and  _473
REMARK  181  A    between atoms: _478  and  _480
REMARK  182  A    between atoms: _480  and  _481
REMARK  183  A    between atoms: _480  and  _483
REMARK  184  A    between atoms: _486  and  _488
REMARK  185  A    between atoms: _488  and  _489
REMARK  186  A    between atoms: _492  and  _494
REMARK  187  A    between atoms: _494  and  _495
REMARK  188  A    between atoms: _494  and  _497
REMARK  189  A    between atoms: _497  and  _498
REMARK  190  A    between atoms: _498  and  _499
REMARK  191  A    between atoms: _499  and  _500
REMARK  192  A    between atoms: _509  and  _511
REMARK  193  A    between atoms: _511  and  _512
REMARK  194  A    between atoms: _511  and  _514
REMARK  195  A    between atoms: _514  and  _515
REMARK  196  A    between atoms: _518  and  _520
REMARK  197  A    between atoms: _520  and  _521
REMARK  198  A    between atoms: _524  and  _526
REMARK  199  A    between atoms: _526  and  _527
REMARK  200  A    between atoms: _530  and  _532
REMARK  201  A    between atoms: _532  and  _533
REMARK  202  A    between atoms: _532  and  _535
REMARK  203  A    between atoms: _535  and  _536
REMARK  204  A    between atoms: _536  and  _537
REMARK                            x       y       z     vdW  Elec       q    Type
REMARK                         _______ _______ _______ _____ _____    ______ ____
ROOT
ATOM      1  O   HOH     1       1.154  27.508  85.897  0.00  0.00    +0.000 OA
ENDROOT
TORSDOF 0
REMARK  Name = ../refined-set-2016/4kiu/4kiu_pocket.pdb
REMARK  204 active torsions:
REMARK  status: ('A' for Active; 'I' for Inactive)
REMARK    1  A    between atoms: _1  and  _3
REMARK    2  A    between atoms: _3  and  _4
REMARK    3  A    between atoms: _3  and  _6
REMARK    4  A    between atoms: _6  and  _7
REMARK    5  A    between atoms: _12  and  _14
REMARK    6  A    between atoms: _14  and  _15
REMARK    7  A    between atoms: _18  and  _19
REMARK    8  A    between atoms: _24  and  _26
REMARK    9  A    between atoms: _26  and  _27
REMARK   10  A    between atoms: _26  and  _29
REMARK   11  A    between atoms: _29  and  _30
REMARK   12  A    between atoms: _35  and  _37
REMARK   13  A    between atoms: _37  and  _38
REMARK   14  A    between atoms: _37  and  _40
REMARK   15  A    between atoms: _40  and  _41
REMARK   16  A    between atoms: _44  and  _46
REMARK   17  A    between atoms: _46  and  _47
REMARK   18  A    between atoms: _49  and  _51
REMARK   19  A    between atoms: _51  and  _52
REMARK   20  A    between atoms: _51  and  _54
REMARK   21  A    between atoms: _54  and  _55
REMARK   22  A    between atoms: _55  and  _56
REMARK   23  A    between atoms: _56  and  _57
REMARK   24  A    between atoms: _66  and  _68
REMARK   25  A    between atoms: _68  and  _69
REMARK   26  A    between atoms: _68  and  _71
REMARK   27  A    between atoms: _71  and  _72
REMARK   28  A    between atoms: _75  and  _77
REMARK   29  A    between atoms: _77  and  _78
REMARK   30  A    between atoms: _82  and  _83
REMARK   31  A    between atoms: _82  and  _85
REMARK   32  A    between atoms: _85  and  _86
REMARK   33  A    between atoms: _86  and  _87
REMARK   34  A    between atoms: _87  and  _88
REMARK   35  A    between atoms: _97  and  _99
REMARK   36  A    between atoms: _99  and  _100
REMARK   37  A    between atoms: _99  and  _102
REMARK   38  A    between atoms: _102  and  _103
REMARK   39  A    between atoms: _103  and  _104
REMARK   40  A    between atoms: _104  and  _105
REMARK   41  A    between atoms: _114  and  _116
REMARK   42  A    between atoms: _116  and  _117
REMARK   43  A    between atoms: _116  and  _119
REMARK   44  A    between atoms: _119  and  _120
REMARK   45  A    between atoms: _120  and  _121
REMARK   46  A    between atoms: _125  and  _126
REMARK   47  A    between atoms: _131  and  _133
REMARK   48  A    between atoms: _133  and  _134
REMARK   49  A    between atoms: _137  and  _139
REMARK   50  A    between atoms: _139  and  _140
REMARK   51  A    between atoms: _139  and  _142
REMARK   52  A    between atoms: _145  and  _147
REMARK   53  A    between atoms: _147  and  _148
REMARK   54  A    between atoms: _147  and  _150
REMARK   55  A    between atoms: _150  and  _151
REMARK   56  A    between atoms: _156  and  _157
REMARK   57  A    between atoms: _159  and  _161
REMARK   58  A    between atoms: _161  and  _162
REMARK   59  A    between atoms: _164  and  _166
REMARK   60  A    between atoms: _166  and  _167
REMARK   61  A    between atoms: _166  and  _169
REMARK   62  A    between atoms: _169  and  _170
REMARK   63  A    between atoms: _173  and  _175
REMARK   64  A    between atoms: _175  and  _176
REMARK   65  A    between atoms: _175  and  _178
REMARK   66  A    between atoms: _178  and  _179
REMARK   67  A    between atoms: _184  and  _186
REMARK   68  A    between atoms: _186  and  _187
REMARK   69  A    between atoms: _186  and  _189
REMARK   70  A    between atoms: _189  and  _190
REMARK   71  A    between atoms: _190  and  _191
REMARK   72  A    between atoms: _196  and  _198
REMARK   73  A    between atoms: _198  and  _199
REMARK   74  A    between atoms: _198  and  _201
REMARK   75  A    between atoms: _201  and  _202
REMARK   76  A    between atoms: _205  and  _207
REMARK   77  A    between atoms: _207  and  _208
REMARK   78  A    between atoms: _207  and  _210
REMARK   79  A    between atoms: _210  and  _211
REMARK   80  A    between atoms: _216  and  _218
REMARK   81  A    between atoms: _218  and  _219
REMARK   82  A    between atoms: _222  and  _224
REMARK   83  A    between atoms: _224  and  _225
REMARK   84  A    between atoms: _227  and  _229
REMARK   85  A    between atoms: _229  and  _230
REMARK   86  A    between atoms: _232  and  _234
REMARK   87  A    between atoms: _234  and  _235
REMARK   88  A    between atoms: _234  and  _237
REMARK   89  A    between atoms: _237  and  _238
REMARK   90  A    between atoms: _241  and  _243
REMARK   91  A    between atoms: _243  and  _244
REMARK   92  A    between atoms: _243  and  _246
REMARK   93  A    between atoms: _246  and  _247
REMARK   94  A    between atoms: _250  and  _252
REMARK   95  A    between atoms: _252  and  _253
REMARK   96  A    between atoms: _252  and  _255
REMARK   97  A    between atoms: _255  and  _256
REMARK   98  A    between atoms: _261  and  _263
REMARK   99  A    between atoms: _263  and  _264
REMARK  100  A    between atoms: _263  and  _266
REMARK  101  A    between atoms: _269  and  _271
REMARK  102  A    between atoms: _271  and  _272
REMARK  103  A    between atoms: _271  and  _274
REMARK  104  A    between atoms: _274  and  _275
REMARK  105  A    between atoms: _280  and  _282
REMARK  106  A    between atoms: _282  and  _283
REMARK  107  A    between atoms: _282  and  _285
REMARK  108  A    between atoms: _285  and  _286
REMARK  109  A    between atoms: _289  and  _291
REMARK  110  A    between atoms: _291  and  _292
REMARK  111  A    between atoms: _291  and  _294
REMARK  112  A    between atoms: _294  and  _295
REMARK  113  A    between atoms: _297  and  _299
REMARK  114  A    between atoms: _299  and  _300
REMARK  115  A    between atoms: _299  and  _302
REMARK  116  A    between atoms: _302  and  _303
REMARK  117  A    between atoms: _308  and  _310
REMARK  118  A    between atoms: _310  and  _311
REMARK  119  A    between atoms: _310  and  _313
REMARK  120  A    between atoms: _316  and  _318
REMARK  121  A    between atoms: _318  and  _319
REMARK  122  A    between atoms: _318  and  _321
REMARK  123  A    between atoms: _321  and  _322
REMARK  124  A    between atoms: _327  and  _329
REMARK  125  A    between atoms: _329  and  _330
REMARK  126  A    between atoms: _333  and  _335
REMARK  127  A    between atoms: _335  and  _336
REMARK  128  A    between atoms: _335  and  _338
REMARK  129  A    between atoms: _338  and  _339
REMARK  130  A    between atoms: _339  and  _340
REMARK  131  A    between atoms: _340  and  _341
REMARK  132  A    between atoms: _350  and  _352
REMARK  133  A    between atoms: _352  and  _353
REMARK  134  A    between atoms: _352  and  _355
REMARK  135  A    between atoms: _355  and  _356
REMARK  136  A    between atoms: _356  and  _357
REMARK  137  A    between atoms: _360  and  _362
REMARK  138  A    between atoms: _362  and  _363
REMARK  139  A    between atoms: _362  and  _365
REMARK  140  A    between atoms: _365  and  _366
REMARK  141  A    between atoms: _372  and  _374
REMARK  142  A    between atoms: _374  and  _375
REMARK  143  A    between atoms: _374  and  _377
REMARK  144  A    between atoms: _377  and  _378
REMARK  145  A    between atoms: _378  and  _379
REMARK  146  A    between atoms: _379  and  _380
REMARK  147  A    between atoms: _389  and  _391
REMARK  148  A    between atoms: _391  and  _392
REMARK  149  A    between atoms: _391  and  _394
REMARK  150  A    between atoms: _394  and  _395
REMARK  151  A    between atoms: _395  and  _396
REMARK  152  A    between atoms: _396  and  _397
REMARK  153  A    between atoms: _406  and  _408
REMARK  154  A    between atoms: _408  and  _409
REMARK  155  A    between atoms: _408  and  _411
REMARK  156  A    between atoms: _411  and  _412
REMARK  157  A    between atoms: _417  and  _419
REMARK  158  A    between atoms: _419  and  _420
REMARK  159  A    between atoms: _419  and  _422
REMARK  160  A    between atoms: _422  and  _423
REMARK  161  A    between atoms: _426  and  _428
REMARK  162  A    between atoms: _428  and  _429
REMARK  163  A    between atoms: _428  and  _431
REMARK  164  A    between atoms: _434  and  _436
REMARK  165  A    between atoms: _436  and  _437
REMARK  166  A    between atoms: _439  and  _441
REMARK  167  A    between atoms: _441  and  _442
REMARK  168  A    between atoms: _441  and  _444
REMARK  169  A    between atoms: _444  and  _445
REMARK  170  A    between atoms: _448  and  _450
REMARK  171  A    between atoms: _450  and  _451
REMARK  172  A    between atoms: _453  and  _455
REMARK  173  A    between atoms: _455  and  _456
REMARK  174  A    between atoms: _455  and  _458
REMARK  175  A    between atoms: _458  and  _459
REMARK  176  A    between atoms: _464  and  _465
REMARK  177  A    between atoms: _467  and  _469
REMARK  178  A    between atoms: _469  and  _470
REMARK  179  A    between atoms: _469  and  _472
REMARK  180  A    between atoms: _472  and  _473
REMARK  181  A    between atoms: _478  and  _480
REMARK  182  A    between atoms: _480  and  _481
REMARK  183  A    between atoms: _480  and  _483
REMARK  184  A    between atoms: _486  and  _488
REMARK  185  A    between atoms: _488  and  _489
REMARK  186  A    between atoms: _492  and  _494
REMARK  187  A    between atoms: _494  and  _495
REMARK  188  A    between atoms: _494  and  _497
REMARK  189  A    between atoms: _497  and  _498
REMARK  190  A    between atoms: _498  and  _499
REMARK  191  A    between atoms: _499  and  _500
REMARK  192  A    between atoms: _509  and  _511
REMARK  193  A    between atoms: _511  and  _512
REMARK  194  A    between atoms: _511  and  _514
REMARK  195  A    between atoms: _514  and  _515
REMARK  196  A    between atoms: _518  and  _520
REMARK  197  A    between atoms: _520  and  _521
REMARK  198  A    between atoms: _524  and  _526
REMARK  199  A    between atoms: _526  and  _527
REMARK  200  A    between atoms: _530  and  _532
REMARK  201  A    between atoms: _532  and  _533
REMARK  202  A    between atoms: _532  and  _535
REMARK  203  A    between atoms: _535  and  _536
REMARK  204  A    between atoms: _536  and  _537
REMARK                            x       y       z     vdW  Elec       q    Type
REMARK                         _______ _______ _______ _____ _____    ______ ____
ROOT
ATOM      1  O   HOH     1      -4.974  38.446  77.925  0.00  0.00    +0.000 OA
ENDROOT
TORSDOF 0
REMARK  Name = ../refined-set-2016/4kiu/4kiu_pocket.pdb
REMARK  204 active torsions:
REMARK  status: ('A' for Active; 'I' for Inactive)
REMARK    1  A    between atoms: _1  and  _3
REMARK    2  A    between atoms: _3  and  _4
REMARK    3  A    between atoms: _3  and  _6
REMARK    4  A    between atoms: _6  and  _7
REMARK    5  A    between atoms: _12  and  _14
REMARK    6  A    between atoms: _14  and  _15
REMARK    7  A    between atoms: _18  and  _19
REMARK    8  A    between atoms: _24  and  _26
REMARK    9  A    between atoms: _26  and  _27
REMARK   10  A    between atoms: _26  and  _29
REMARK   11  A    between atoms: _29  and  _30
REMARK   12  A    between atoms: _35  and  _37
REMARK   13  A    between atoms: _37  and  _38
REMARK   14  A    between atoms: _37  and  _40
REMARK   15  A    between atoms: _40  and  _41
REMARK   16  A    between atoms: _44  and  _46
REMARK   17  A    between atoms: _46  and  _47
REMARK   18  A    between atoms: _49  and  _51
REMARK   19  A    between atoms: _51  and  _52
REMARK   20  A    between atoms: _51  and  _54
REMARK   21  A    between atoms: _54  and  _55
REMARK   22  A    between atoms: _55  and  _56
REMARK   23  A    between atoms: _56  and  _57
REMARK   24  A    between atoms: _66  and  _68
REMARK   25  A    between atoms: _68  and  _69
REMARK   26  A    between atoms: _68  and  _71
REMARK   27  A    between atoms: _71  and  _72
REMARK   28  A    between atoms: _75  and  _77
REMARK   29  A    between atoms: _77  and  _78
REMARK   30  A    between atoms: _82  and  _83
REMARK   31  A    between atoms: _82  and  _85
REMARK   32  A    between atoms: _85  and  _86
REMARK   33  A    between atoms: _86  and  _87
REMARK   34  A    between atoms: _87  and  _88
REMARK   35  A    between atoms: _97  and  _99
REMARK   36  A    between atoms: _99  and  _100
REMARK   37  A    between atoms: _99  and  _102
REMARK   38  A    between atoms: _102  and  _103
REMARK   39  A    between atoms: _103  and  _104
REMARK   40  A    between atoms: _104  and  _105
REMARK   41  A    between atoms: _114  and  _116
REMARK   42  A    between atoms: _116  and  _117
REMARK   43  A    between atoms: _116  and  _119
REMARK   44  A    between atoms: _119  and  _120
REMARK   45  A    between atoms: _120  and  _121
REMARK   46  A    between atoms: _125  and  _126
REMARK   47  A    between atoms: _131  and  _133
REMARK   48  A    between atoms: _133  and  _134
REMARK   49  A    between atoms: _137  and  _139
REMARK   50  A    between atoms: _139  and  _140
REMARK   51  A    between atoms: _139  and  _142
REMARK   52  A    between atoms: _145  and  _147
REMARK   53  A    between atoms: _147  and  _148
REMARK   54  A    between atoms: _147  and  _150
REMARK   55  A    between atoms: _150  and  _151
REMARK   56  A    between atoms: _156  and  _157
REMARK   57  A    between atoms: _159  and  _161
REMARK   58  A    between atoms: _161  and  _162
REMARK   59  A    between atoms: _164  and  _166
REMARK   60  A    between atoms: _166  and  _167
REMARK   61  A    between atoms: _166  and  _169
REMARK   62  A    between atoms: _169  and  _170
REMARK   63  A    between atoms: _173  and  _175
REMARK   64  A    between atoms: _175  and  _176
REMARK   65  A    between atoms: _175  and  _178
REMARK   66  A    between atoms: _178  and  _179
REMARK   67  A    between atoms: _184  and  _186
REMARK   68  A    between atoms: _186  and  _187
REMARK   69  A    between atoms: _186  and  _189
REMARK   70  A    between atoms: _189  and  _190
REMARK   71  A    between atoms: _190  and  _191
REMARK   72  A    between atoms: _196  and  _198
REMARK   73  A    between atoms: _198  and  _199
REMARK   74  A    between atoms: _198  and  _201
REMARK   75  A    between atoms: _201  and  _202
REMARK   76  A    between atoms: _205  and  _207
REMARK   77  A    between atoms: _207  and  _208
REMARK   78  A    between atoms: _207  and  _210
REMARK   79  A    between atoms: _210  and  _211
REMARK   80  A    between atoms: _216  and  _218
REMARK   81  A    between atoms: _218  and  _219
REMARK   82  A    between atoms: _222  and  _224
REMARK   83  A    between atoms: _224  and  _225
REMARK   84  A    between atoms: _227  and  _229
REMARK   85  A    between atoms: _229  and  _230
REMARK   86  A    between atoms: _232  and  _234
REMARK   87  A    between atoms: _234  and  _235
REMARK   88  A    between atoms: _234  and  _237
REMARK   89  A    between atoms: _237  and  _238
REMARK   90  A    between atoms: _241  and  _243
REMARK   91  A    between atoms: _243  and  _244
REMARK   92  A    between atoms: _243  and  _246
REMARK   93  A    between atoms: _246  and  _247
REMARK   94  A    between atoms: _250  and  _252
REMARK   95  A    between atoms: _252  and  _253
REMARK   96  A    between atoms: _252  and  _255
REMARK   97  A    between atoms: _255  and  _256
REMARK   98  A    between atoms: _261  and  _263
REMARK   99  A    between atoms: _263  and  _264
REMARK  100  A    between atoms: _263  and  _266
REMARK  101  A    between atoms: _269  and  _271
REMARK  102  A    between atoms: _271  and  _272
REMARK  103  A    between atoms: _271  and  _274
REMARK  104  A    between atoms: _274  and  _275
REMARK  105  A    between atoms: _280  and  _282
REMARK  106  A    between atoms: _282  and  _283
REMARK  107  A    between atoms: _282  and  _285
REMARK  108  A    between atoms: _285  and  _286
REMARK  109  A    between atoms: _289  and  _291
REMARK  110  A    between atoms: _291  and  _292
REMARK  111  A    between atoms: _291  and  _294
REMARK  112  A    between atoms: _294  and  _295
REMARK  113  A    between atoms: _297  and  _299
REMARK  114  A    between atoms: _299  and  _300
REMARK  115  A    between atoms: _299  and  _302
REMARK  116  A    between atoms: _302  and  _303
REMARK  117  A    between atoms: _308  and  _310
REMARK  118  A    between atoms: _310  and  _311
REMARK  119  A    between atoms: _310  and  _313
REMARK  120  A    between atoms: _316  and  _318
REMARK  121  A    between atoms: _318  and  _319
REMARK  122  A    between atoms: _318  and  _321
REMARK  123  A    between atoms: _321  and  _322
REMARK  124  A    between atoms: _327  and  _329
REMARK  125  A    between atoms: _329  and  _330
REMARK  126  A    between atoms: _333  and  _335
REMARK  127  A    between atoms: _335  and  _336
REMARK  128  A    between atoms: _335  and  _338
REMARK  129  A    between atoms: _338  and  _339
REMARK  130  A    between atoms: _339  and  _340
REMARK  131  A    between atoms: _340  and  _341
REMARK  132  A    between atoms: _350  and  _352
REMARK  133  A    between atoms: _352  and  _353
REMARK  134  A    between atoms: _352  and  _355
REMARK  135  A    between atoms: _355  and  _356
REMARK  136  A    between atoms: _356  and  _357
REMARK  137  A    between atoms: _360  and  _362
REMARK  138  A    between atoms: _362  and  _363
REMARK  139  A    between atoms: _362  and  _365
REMARK  140  A    between atoms: _365  and  _366
REMARK  141  A    between atoms: _372  and  _374
REMARK  142  A    between atoms: _374  and  _375
REMARK  143  A    between atoms: _374  and  _377
REMARK  144  A    between atoms: _377  and  _378
REMARK  145  A    between atoms: _378  and  _379
REMARK  146  A    between atoms: _379  and  _380
REMARK  147  A    between atoms: _389  and  _391
REMARK  148  A    between atoms: _391  and  _392
REMARK  149  A    between atoms: _391  and  _394
REMARK  150  A    between atoms: _394  and  _395
REMARK  151  A    between atoms: _395  and  _396
REMARK  152  A    between atoms: _396  and  _397
REMARK  153  A    between atoms: _406  and  _408
REMARK  154  A    between atoms: _408  and  _409
REMARK  155  A    between atoms: _408  and  _411
REMARK  156  A    between atoms: _411  and  _412
REMARK  157  A    between atoms: _417  and  _419
REMARK  158  A    between atoms: _419  and  _420
REMARK  159  A    between atoms: _419  and  _422
REMARK  160  A    between atoms: _422  and  _423
REMARK  161  A    between atoms: _426  and  _428
REMARK  162  A    between atoms: _428  and  _429
REMARK  163  A    between atoms: _428  and  _431
REMARK  164  A    between atoms: _434  and  _436
REMARK  165  A    between atoms: _436  and  _437
REMARK  166  A    between atoms: _439  and  _441
REMARK  167  A    between atoms: _441  and  _442
REMARK  168  A    between atoms: _441  and  _444
REMARK  169  A    between atoms: _444  and  _445
REMARK  170  A    between atoms: _448  and  _450
REMARK  171  A    between atoms: _450  and  _451
REMARK  172  A    between atoms: _453  and  _455
REMARK  173  A    between atoms: _455  and  _456
REMARK  174  A    between atoms: _455  and  _458
REMARK  175  A    between atoms: _458  and  _459
REMARK  176  A    between atoms: _464  and  _465
REMARK  177  A    between atoms: _467  and  _469
REMARK  178  A    between atoms: _469  and  _470
REMARK  179  A    between atoms: _469  and  _472
REMARK  180  A    between atoms: _472  and  _473
REMARK  181  A    between atoms: _478  and  _480
REMARK  182  A    between atoms: _480  and  _481
REMARK  183  A    between atoms: _480  and  _483
REMARK  184  A    between atoms: _486  and  _488
REMARK  185  A    between atoms: _488  and  _489
REMARK  186  A    between atoms: _492  and  _494
REMARK  187  A    between atoms: _494  and  _495
REMARK  188  A    between atoms: _494  and  _497
REMARK  189  A    between atoms: _497  and  _498
REMARK  190  A    between atoms: _498  and  _499
REMARK  191  A    between atoms: _499  and  _500
REMARK  192  A    between atoms: _509  and  _511
REMARK  193  A    between atoms: _511  and  _512
REMARK  194  A    between atoms: _511  and  _514
REMARK  195  A    between atoms: _514  and  _515
REMARK  196  A    between atoms: _518  and  _520
REMARK  197  A    between atoms: _520  and  _521
REMARK  198  A    between atoms: _524  and  _526
REMARK  199  A    between atoms: _526  and  _527
REMARK  200  A    between atoms: _530  and  _532
REMARK  201  A    between atoms: _532  and  _533
REMARK  202  A    between atoms: _532  and  _535
REMARK  203  A    between atoms: _535  and  _536
REMARK  204  A    between atoms: _536  and  _537
REMARK                            x       y       z     vdW  Elec       q    Type
REMARK                         _______ _______ _______ _____ _____    ______ ____
ROOT
ATOM      1  O   HOH     1      -8.723  42.073  84.241  0.00  0.00    +0.000 OA
ENDROOT
TORSDOF 0
REMARK  Name = ../refined-set-2016/4kiu/4kiu_pocket.pdb
REMARK  204 active torsions:
REMARK  status: ('A' for Active; 'I' for Inactive)
REMARK    1  A    between atoms: _1  and  _3
REMARK    2  A    between atoms: _3  and  _4
REMARK    3  A    between atoms: _3  and  _6
REMARK    4  A    between atoms: _6  and  _7
REMARK    5  A    between atoms: _12  and  _14
REMARK    6  A    between atoms: _14  and  _15
REMARK    7  A    between atoms: _18  and  _19
REMARK    8  A    between atoms: _24  and  _26
REMARK    9  A    between atoms: _26  and  _27
REMARK   10  A    between atoms: _26  and  _29
REMARK   11  A    between atoms: _29  and  _30
REMARK   12  A    between atoms: _35  and  _37
REMARK   13  A    between atoms: _37  and  _38
REMARK   14  A    between atoms: _37  and  _40
REMARK   15  A    between atoms: _40  and  _41
REMARK   16  A    between atoms: _44  and  _46
REMARK   17  A    between atoms: _46  and  _47
REMARK   18  A    between atoms: _49  and  _51
REMARK   19  A    between atoms: _51  and  _52
REMARK   20  A    between atoms: _51  and  _54
REMARK   21  A    between atoms: _54  and  _55
REMARK   22  A    between atoms: _55  and  _56
REMARK   23  A    between atoms: _56  and  _57
REMARK   24  A    between atoms: _66  and  _68
REMARK   25  A    between atoms: _68  and  _69
REMARK   26  A    between atoms: _68  and  _71
REMARK   27  A    between atoms: _71  and  _72
REMARK   28  A    between atoms: _75  and  _77
REMARK   29  A    between atoms: _77  and  _78
REMARK   30  A    between atoms: _82  and  _83
REMARK   31  A    between atoms: _82  and  _85
REMARK   32  A    between atoms: _85  and  _86
REMARK   33  A    between atoms: _86  and  _87
REMARK   34  A    between atoms: _87  and  _88
REMARK   35  A    between atoms: _97  and  _99
REMARK   36  A    between atoms: _99  and  _100
REMARK   37  A    between atoms: _99  and  _102
REMARK   38  A    between atoms: _102  and  _103
REMARK   39  A    between atoms: _103  and  _104
REMARK   40  A    between atoms: _104  and  _105
REMARK   41  A    between atoms: _114  and  _116
REMARK   42  A    between atoms: _116  and  _117
REMARK   43  A    between atoms: _116  and  _119
REMARK   44  A    between atoms: _119  and  _120
REMARK   45  A    between atoms: _120  and  _121
REMARK   46  A    between atoms: _125  and  _126
REMARK   47  A    between atoms: _131  and  _133
REMARK   48  A    between atoms: _133  and  _134
REMARK   49  A    between atoms: _137  and  _139
REMARK   50  A    between atoms: _139  and  _140
REMARK   51  A    between atoms: _139  and  _142
REMARK   52  A    between atoms: _145  and  _147
REMARK   53  A    between atoms: _147  and  _148
REMARK   54  A    between atoms: _147  and  _150
REMARK   55  A    between atoms: _150  and  _151
REMARK   56  A    between atoms: _156  and  _157
REMARK   57  A    between atoms: _159  and  _161
REMARK   58  A    between atoms: _161  and  _162
REMARK   59  A    between atoms: _164  and  _166
REMARK   60  A    between atoms: _166  and  _167
REMARK   61  A    between atoms: _166  and  _169
REMARK   62  A    between atoms: _169  and  _170
REMARK   63  A    between atoms: _173  and  _175
REMARK   64  A    between atoms: _175  and  _176
REMARK   65  A    between atoms: _175  and  _178
REMARK   66  A    between atoms: _178  and  _179
REMARK   67  A    between atoms: _184  and  _186
REMARK   68  A    between atoms: _186  and  _187
REMARK   69  A    between atoms: _186  and  _189
REMARK   70  A    between atoms: _189  and  _190
REMARK   71  A    between atoms: _190  and  _191
REMARK   72  A    between atoms: _196  and  _198
REMARK   73  A    between atoms: _198  and  _199
REMARK   74  A    between atoms: _198  and  _201
REMARK   75  A    between atoms: _201  and  _202
REMARK   76  A    between atoms: _205  and  _207
REMARK   77  A    between atoms: _207  and  _208
REMARK   78  A    between atoms: _207  and  _210
REMARK   79  A    between atoms: _210  and  _211
REMARK   80  A    between atoms: _216  and  _218
REMARK   81  A    between atoms: _218  and  _219
REMARK   82  A    between atoms: _222  and  _224
REMARK   83  A    between atoms: _224  and  _225
REMARK   84  A    between atoms: _227  and  _229
REMARK   85  A    between atoms: _229  and  _230
REMARK   86  A    between atoms: _232  and  _234
REMARK   87  A    between atoms: _234  and  _235
REMARK   88  A    between atoms: _234  and  _237
REMARK   89  A    between atoms: _237  and  _238
REMARK   90  A    between atoms: _241  and  _243
REMARK   91  A    between atoms: _243  and  _244
REMARK   92  A    between atoms: _243  and  _246
REMARK   93  A    between atoms: _246  and  _247
REMARK   94  A    between atoms: _250  and  _252
REMARK   95  A    between atoms: _252  and  _253
REMARK   96  A    between atoms: _252  and  _255
REMARK   97  A    between atoms: _255  and  _256
REMARK   98  A    between atoms: _261  and  _263
REMARK   99  A    between atoms: _263  and  _264
REMARK  100  A    between atoms: _263  and  _266
REMARK  101  A    between atoms: _269  and  _271
REMARK  102  A    between atoms: _271  and  _272
REMARK  103  A    between atoms: _271  and  _274
REMARK  104  A    between atoms: _274  and  _275
REMARK  105  A    between atoms: _280  and  _282
REMARK  106  A    between atoms: _282  and  _283
REMARK  107  A    between atoms: _282  and  _285
REMARK  108  A    between atoms: _285  and  _286
REMARK  109  A    between atoms: _289  and  _291
REMARK  110  A    between atoms: _291  and  _292
REMARK  111  A    between atoms: _291  and  _294
REMARK  112  A    between atoms: _294  and  _295
REMARK  113  A    between atoms: _297  and  _299
REMARK  114  A    between atoms: _299  and  _300
REMARK  115  A    between atoms: _299  and  _302
REMARK  116  A    between atoms: _302  and  _303
REMARK  117  A    between atoms: _308  and  _310
REMARK  118  A    between atoms: _310  and  _311
REMARK  119  A    between atoms: _310  and  _313
REMARK  120  A    between atoms: _316  and  _318
REMARK  121  A    between atoms: _318  and  _319
REMARK  122  A    between atoms: _318  and  _321
REMARK  123  A    between atoms: _321  and  _322
REMARK  124  A    between atoms: _327  and  _329
REMARK  125  A    between atoms: _329  and  _330
REMARK  126  A    between atoms: _333  and  _335
REMARK  127  A    between atoms: _335  and  _336
REMARK  128  A    between atoms: _335  and  _338
REMARK  129  A    between atoms: _338  and  _339
REMARK  130  A    between atoms: _339  and  _340
REMARK  131  A    between atoms: _340  and  _341
REMARK  132  A    between atoms: _350  and  _352
REMARK  133  A    between atoms: _352  and  _353
REMARK  134  A    between atoms: _352  and  _355
REMARK  135  A    between atoms: _355  and  _356
REMARK  136  A    between atoms: _356  and  _357
REMARK  137  A    between atoms: _360  and  _362
REMARK  138  A    between atoms: _362  and  _363
REMARK  139  A    between atoms: _362  and  _365
REMARK  140  A    between atoms: _365  and  _366
REMARK  141  A    between atoms: _372  and  _374
REMARK  142  A    between atoms: _374  and  _375
REMARK  143  A    between atoms: _374  and  _377
REMARK  144  A    between atoms: _377  and  _378
REMARK  145  A    between atoms: _378  and  _379
REMARK  146  A    between atoms: _379  and  _380
REMARK  147  A    between atoms: _389  and  _391
REMARK  148  A    between atoms: _391  and  _392
REMARK  149  A    between atoms: _391  and  _394
REMARK  150  A    between atoms: _394  and  _395
REMARK  151  A    between atoms: _395  and  _396
REMARK  152  A    between atoms: _396  and  _397
REMARK  153  A    between atoms: _406  and  _408
REMARK  154  A    between atoms: _408  and  _409
REMARK  155  A    between atoms: _408  and  _411
REMARK  156  A    between atoms: _411  and  _412
REMARK  157  A    between atoms: _417  and  _419
REMARK  158  A    between atoms: _419  and  _420
REMARK  159  A    between atoms: _419  and  _422
REMARK  160  A    between atoms: _422  and  _423
REMARK  161  A    between atoms: _426  and  _428
REMARK  162  A    between atoms: _428  and  _429
REMARK  163  A    between atoms: _428  and  _431
REMARK  164  A    between atoms: _434  and  _436
REMARK  165  A    between atoms: _436  and  _437
REMARK  166  A    between atoms: _439  and  _441
REMARK  167  A    between atoms: _441  and  _442
REMARK  168  A    between atoms: _441  and  _444
REMARK  169  A    between atoms: _444  and  _445
REMARK  170  A    between atoms: _448  and  _450
REMARK  171  A    between atoms: _450  and  _451
REMARK  172  A    between atoms: _453  and  _455
REMARK  173  A    between atoms: _455  and  _456
REMARK  174  A    between atoms: _455  and  _458
REMARK  175  A    between atoms: _458  and  _459
REMARK  176  A    between atoms: _464  and  _465
REMARK  177  A    between atoms: _467  and  _469
REMARK  178  A    between atoms: _469  and  _470
REMARK  179  A    between atoms: _469  and  _472
REMARK  180  A    between atoms: _472  and  _473
REMARK  181  A    between atoms: _478  and  _480
REMARK  182  A    between atoms: _480  and  _481
REMARK  183  A    between atoms: _480  and  _483
REMARK  184  A    between atoms: _486  and  _488
REMARK  185  A    between atoms: _488  and  _489
REMARK  186  A    between atoms: _492  and  _494
REMARK  187  A    between atoms: _494  and  _495
REMARK  188  A    between atoms: _494  and  _497
REMARK  189  A    between atoms: _497  and  _498
REMARK  190  A    between atoms: _498  and  _499
REMARK  191  A    between atoms: _499  and  _500
REMARK  192  A    between atoms: _509  and  _511
REMARK  193  A    between atoms: _511  and  _512
REMARK  194  A    between atoms: _511  and  _514
REMARK  195  A    between atoms: _514  and  _515
REMARK  196  A    between atoms: _518  and  _520
REMARK  197  A    between atoms: _520  and  _521
REMARK  198  A    between atoms: _524  and  _526
REMARK  199  A    between atoms: _526  and  _527
REMARK  200  A    between atoms: _530  and  _532
REMARK  201  A    between atoms: _532  and  _533
REMARK  202  A    between atoms: _532  and  _535
REMARK  203  A    between atoms: _535  and  _536
REMARK  204  A    between atoms: _536  and  _537
REMARK                            x       y       z     vdW  Elec       q    Type
REMARK                         _______ _______ _______ _____ _____    ______ ____
ROOT
ATOM      1  O   HOH     1     -11.711  37.638  89.222  0.00  0.00    +0.000 OA
ENDROOT
TORSDOF 0
REMARK  Name = ../refined-set-2016/4kiu/4kiu_pocket.pdb
REMARK  204 active torsions:
REMARK  status: ('A' for Active; 'I' for Inactive)
REMARK    1  A    between atoms: _1  and  _3
REMARK    2  A    between atoms: _3  and  _4
REMARK    3  A    between atoms: _3  and  _6
REMARK    4  A    between atoms: _6  and  _7
REMARK    5  A    between atoms: _12  and  _14
REMARK    6  A    between atoms: _14  and  _15
REMARK    7  A    between atoms: _18  and  _19
REMARK    8  A    between atoms: _24  and  _26
REMARK    9  A    between atoms: _26  and  _27
REMARK   10  A    between atoms: _26  and  _29
REMARK   11  A    between atoms: _29  and  _30
REMARK   12  A    between atoms: _35  and  _37
REMARK   13  A    between atoms: _37  and  _38
REMARK   14  A    between atoms: _37  and  _40
REMARK   15  A    between atoms: _40  and  _41
REMARK   16  A    between atoms: _44  and  _46
REMARK   17  A    between atoms: _46  and  _47
REMARK   18  A    between atoms: _49  and  _51
REMARK   19  A    between atoms: _51  and  _52
REMARK   20  A    between atoms: _51  and  _54
REMARK   21  A    between atoms: _54  and  _55
REMARK   22  A    between atoms: _55  and  _56
REMARK   23  A    between atoms: _56  and  _57
REMARK   24  A    between atoms: _66  and  _68
REMARK   25  A    between atoms: _68  and  _69
REMARK   26  A    between atoms: _68  and  _71
REMARK   27  A    between atoms: _71  and  _72
REMARK   28  A    between atoms: _75  and  _77
REMARK   29  A    between atoms: _77  and  _78
REMARK   30  A    between atoms: _82  and  _83
REMARK   31  A    between atoms: _82  and  _85
REMARK   32  A    between atoms: _85  and  _86
REMARK   33  A    between atoms: _86  and  _87
REMARK   34  A    between atoms: _87  and  _88
REMARK   35  A    between atoms: _97  and  _99
REMARK   36  A    between atoms: _99  and  _100
REMARK   37  A    between atoms: _99  and  _102
REMARK   38  A    between atoms: _102  and  _103
REMARK   39  A    between atoms: _103  and  _104
REMARK   40  A    between atoms: _104  and  _105
REMARK   41  A    between atoms: _114  and  _116
REMARK   42  A    between atoms: _116  and  _117
REMARK   43  A    between atoms: _116  and  _119
REMARK   44  A    between atoms: _119  and  _120
REMARK   45  A    between atoms: _120  and  _121
REMARK   46  A    between atoms: _125  and  _126
REMARK   47  A    between atoms: _131  and  _133
REMARK   48  A    between atoms: _133  and  _134
REMARK   49  A    between atoms: _137  and  _139
REMARK   50  A    between atoms: _139  and  _140
REMARK   51  A    between atoms: _139  and  _142
REMARK   52  A    between atoms: _145  and  _147
REMARK   53  A    between atoms: _147  and  _148
REMARK   54  A    between atoms: _147  and  _150
REMARK   55  A    between atoms: _150  and  _151
REMARK   56  A    between atoms: _156  and  _157
REMARK   57  A    between atoms: _159  and  _161
REMARK   58  A    between atoms: _161  and  _162
REMARK   59  A    between atoms: _164  and  _166
REMARK   60  A    between atoms: _166  and  _167
REMARK   61  A    between atoms: _166  and  _169
REMARK   62  A    between atoms: _169  and  _170
REMARK   63  A    between atoms: _173  and  _175
REMARK   64  A    between atoms: _175  and  _176
REMARK   65  A    between atoms: _175  and  _178
REMARK   66  A    between atoms: _178  and  _179
REMARK   67  A    between atoms: _184  and  _186
REMARK   68  A    between atoms: _186  and  _187
REMARK   69  A    between atoms: _186  and  _189
REMARK   70  A    between atoms: _189  and  _190
REMARK   71  A    between atoms: _190  and  _191
REMARK   72  A    between atoms: _196  and  _198
REMARK   73  A    between atoms: _198  and  _199
REMARK   74  A    between atoms: _198  and  _201
REMARK   75  A    between atoms: _201  and  _202
REMARK   76  A    between atoms: _205  and  _207
REMARK   77  A    between atoms: _207  and  _208
REMARK   78  A    between atoms: _207  and  _210
REMARK   79  A    between atoms: _210  and  _211
REMARK   80  A    between atoms: _216  and  _218
REMARK   81  A    between atoms: _218  and  _219
REMARK   82  A    between atoms: _222  and  _224
REMARK   83  A    between atoms: _224  and  _225
REMARK   84  A    between atoms: _227  and  _229
REMARK   85  A    between atoms: _229  and  _230
REMARK   86  A    between atoms: _232  and  _234
REMARK   87  A    between atoms: _234  and  _235
REMARK   88  A    between atoms: _234  and  _237
REMARK   89  A    between atoms: _237  and  _238
REMARK   90  A    between atoms: _241  and  _243
REMARK   91  A    between atoms: _243  and  _244
REMARK   92  A    between atoms: _243  and  _246
REMARK   93  A    between atoms: _246  and  _247
REMARK   94  A    between atoms: _250  and  _252
REMARK   95  A    between atoms: _252  and  _253
REMARK   96  A    between atoms: _252  and  _255
REMARK   97  A    between atoms: _255  and  _256
REMARK   98  A    between atoms: _261  and  _263
REMARK   99  A    between atoms: _263  and  _264
REMARK  100  A    between atoms: _263  and  _266
REMARK  101  A    between atoms: _269  and  _271
REMARK  102  A    between atoms: _271  and  _272
REMARK  103  A    between atoms: _271  and  _274
REMARK  104  A    between atoms: _274  and  _275
REMARK  105  A    between atoms: _280  and  _282
REMARK  106  A    between atoms: _282  and  _283
REMARK  107  A    between atoms: _282  and  _285
REMARK  108  A    between atoms: _285  and  _286
REMARK  109  A    between atoms: _289  and  _291
REMARK  110  A    between atoms: _291  and  _292
REMARK  111  A    between atoms: _291  and  _294
REMARK  112  A    between atoms: _294  and  _295
REMARK  113  A    between atoms: _297  and  _299
REMARK  114  A    between atoms: _299  and  _300
REMARK  115  A    between atoms: _299  and  _302
REMARK  116  A    between atoms: _302  and  _303
REMARK  117  A    between atoms: _308  and  _310
REMARK  118  A    between atoms: _310  and  _311
REMARK  119  A    between atoms: _310  and  _313
REMARK  120  A    between atoms: _316  and  _318
REMARK  121  A    between atoms: _318  and  _319
REMARK  122  A    between atoms: _318  and  _321
REMARK  123  A    between atoms: _321  and  _322
REMARK  124  A    between atoms: _327  and  _329
REMARK  125  A    between atoms: _329  and  _330
REMARK  126  A    between atoms: _333  and  _335
REMARK  127  A    between atoms: _335  and  _336
REMARK  128  A    between atoms: _335  and  _338
REMARK  129  A    between atoms: _338  and  _339
REMARK  130  A    between atoms: _339  and  _340
REMARK  131  A    between atoms: _340  and  _341
REMARK  132  A    between atoms: _350  and  _352
REMARK  133  A    between atoms: _352  and  _353
REMARK  134  A    between atoms: _352  and  _355
REMARK  135  A    between atoms: _355  and  _356
REMARK  136  A    between atoms: _356  and  _357
REMARK  137  A    between atoms: _360  and  _362
REMARK  138  A    between atoms: _362  and  _363
REMARK  139  A    between atoms: _362  and  _365
REMARK  140  A    between atoms: _365  and  _366
REMARK  141  A    between atoms: _372  and  _374
REMARK  142  A    between atoms: _374  and  _375
REMARK  143  A    between atoms: _374  and  _377
REMARK  144  A    between atoms: _377  and  _378
REMARK  145  A    between atoms: _378  and  _379
REMARK  146  A    between atoms: _379  and  _380
REMARK  147  A    between atoms: _389  and  _391
REMARK  148  A    between atoms: _391  and  _392
REMARK  149  A    between atoms: _391  and  _394
REMARK  150  A    between atoms: _394  and  _395
REMARK  151  A    between atoms: _395  and  _396
REMARK  152  A    between atoms: _396  and  _397
REMARK  153  A    between atoms: _406  and  _408
REMARK  154  A    between atoms: _408  and  _409
REMARK  155  A    between atoms: _408  and  _411
REMARK  156  A    between atoms: _411  and  _412
REMARK  157  A    between atoms: _417  and  _419
REMARK  158  A    between atoms: _419  and  _420
REMARK  159  A    between atoms: _419  and  _422
REMARK  160  A    between atoms: _422  and  _423
REMARK  161  A    between atoms: _426  and  _428
REMARK  162  A    between atoms: _428  and  _429
REMARK  163  A    between atoms: _428  and  _431
REMARK  164  A    between atoms: _434  and  _436
REMARK  165  A    between atoms: _436  and  _437
REMARK  166  A    between atoms: _439  and  _441
REMARK  167  A    between atoms: _441  and  _442
REMARK  168  A    between atoms: _441  and  _444
REMARK  169  A    between atoms: _444  and  _445
REMARK  170  A    between atoms: _448  and  _450
REMARK  171  A    between atoms: _450  and  _451
REMARK  172  A    between atoms: _453  and  _455
REMARK  173  A    between atoms: _455  and  _456
REMARK  174  A    between atoms: _455  and  _458
REMARK  175  A    between atoms: _458  and  _459
REMARK  176  A    between atoms: _464  and  _465
REMARK  177  A    between atoms: _467  and  _469
REMARK  178  A    between atoms: _469  and  _470
REMARK  179  A    between atoms: _469  and  _472
REMARK  180  A    between atoms: _472  and  _473
REMARK  181  A    between atoms: _478  and  _480
REMARK  182  A    between atoms: _480  and  _481
REMARK  183  A    between atoms: _480  and  _483
REMARK  184  A    between atoms: _486  and  _488
REMARK  185  A    between atoms: _488  and  _489
REMARK  186  A    between atoms: _492  and  _494
REMARK  187  A    between atoms: _494  and  _495
REMARK  188  A    between atoms: _494  and  _497
REMARK  189  A    between atoms: _497  and  _498
REMARK  190  A    between atoms: _498  and  _499
REMARK  191  A    between atoms: _499  and  _500
REMARK  192  A    between atoms: _509  and  _511
REMARK  193  A    between atoms: _511  and  _512
REMARK  194  A    between atoms: _511  and  _514
REMARK  195  A    between atoms: _514  and  _515
REMARK  196  A    between atoms: _518  and  _520
REMARK  197  A    between atoms: _520  and  _521
REMARK  198  A    between atoms: _524  and  _526
REMARK  199  A    between atoms: _526  and  _527
REMARK  200  A    between atoms: _530  and  _532
REMARK  201  A    between atoms: _532  and  _533
REMARK  202  A    between atoms: _532  and  _535
REMARK  203  A    between atoms: _535  and  _536
REMARK  204  A    between atoms: _536  and  _537
REMARK                            x       y       z     vdW  Elec       q    Type
REMARK                         _______ _______ _______ _____ _____    ______ ____
ROOT
ATOM      1  O   HOH     1       4.357  31.827  74.596  0.00  0.00    +0.000 OA
ENDROOT
TORSDOF 0
REMARK  Name = ../refined-set-2016/4kiu/4kiu_pocket.pdb
REMARK  204 active torsions:
REMARK  status: ('A' for Active; 'I' for Inactive)
REMARK    1  A    between atoms: _1  and  _3
REMARK    2  A    between atoms: _3  and  _4
REMARK    3  A    between atoms: _3  and  _6
REMARK    4  A    between atoms: _6  and  _7
REMARK    5  A    between atoms: _12  and  _14
REMARK    6  A    between atoms: _14  and  _15
REMARK    7  A    between atoms: _18  and  _19
REMARK    8  A    between atoms: _24  and  _26
REMARK    9  A    between atoms: _26  and  _27
REMARK   10  A    between atoms: _26  and  _29
REMARK   11  A    between atoms: _29  and  _30
REMARK   12  A    between atoms: _35  and  _37
REMARK   13  A    between atoms: _37  and  _38
REMARK   14  A    between atoms: _37  and  _40
REMARK   15  A    between atoms: _40  and  _41
REMARK   16  A    between atoms: _44  and  _46
REMARK   17  A    between atoms: _46  and  _47
REMARK   18  A    between atoms: _49  and  _51
REMARK   19  A    between atoms: _51  and  _52
REMARK   20  A    between atoms: _51  and  _54
REMARK   21  A    between atoms: _54  and  _55
REMARK   22  A    between atoms: _55  and  _56
REMARK   23  A    between atoms: _56  and  _57
REMARK   24  A    between atoms: _66  and  _68
REMARK   25  A    between atoms: _68  and  _69
REMARK   26  A    between atoms: _68  and  _71
REMARK   27  A    between atoms: _71  and  _72
REMARK   28  A    between atoms: _75  and  _77
REMARK   29  A    between atoms: _77  and  _78
REMARK   30  A    between atoms: _82  and  _83
REMARK   31  A    between atoms: _82  and  _85
REMARK   32  A    between atoms: _85  and  _86
REMARK   33  A    between atoms: _86  and  _87
REMARK   34  A    between atoms: _87  and  _88
REMARK   35  A    between atoms: _97  and  _99
REMARK   36  A    between atoms: _99  and  _100
REMARK   37  A    between atoms: _99  and  _102
REMARK   38  A    between atoms: _102  and  _103
REMARK   39  A    between atoms: _103  and  _104
REMARK   40  A    between atoms: _104  and  _105
REMARK   41  A    between atoms: _114  and  _116
REMARK   42  A    between atoms: _116  and  _117
REMARK   43  A    between atoms: _116  and  _119
REMARK   44  A    between atoms: _119  and  _120
REMARK   45  A    between atoms: _120  and  _121
REMARK   46  A    between atoms: _125  and  _126
REMARK   47  A    between atoms: _131  and  _133
REMARK   48  A    between atoms: _133  and  _134
REMARK   49  A    between atoms: _137  and  _139
REMARK   50  A    between atoms: _139  and  _140
REMARK   51  A    between atoms: _139  and  _142
REMARK   52  A    between atoms: _145  and  _147
REMARK   53  A    between atoms: _147  and  _148
REMARK   54  A    between atoms: _147  and  _150
REMARK   55  A    between atoms: _150  and  _151
REMARK   56  A    between atoms: _156  and  _157
REMARK   57  A    between atoms: _159  and  _161
REMARK   58  A    between atoms: _161  and  _162
REMARK   59  A    between atoms: _164  and  _166
REMARK   60  A    between atoms: _166  and  _167
REMARK   61  A    between atoms: _166  and  _169
REMARK   62  A    between atoms: _169  and  _170
REMARK   63  A    between atoms: _173  and  _175
REMARK   64  A    between atoms: _175  and  _176
REMARK   65  A    between atoms: _175  and  _178
REMARK   66  A    between atoms: _178  and  _179
REMARK   67  A    between atoms: _184  and  _186
REMARK   68  A    between atoms: _186  and  _187
REMARK   69  A    between atoms: _186  and  _189
REMARK   70  A    between atoms: _189  and  _190
REMARK   71  A    between atoms: _190  and  _191
REMARK   72  A    between atoms: _196  and  _198
REMARK   73  A    between atoms: _198  and  _199
REMARK   74  A    between atoms: _198  and  _201
REMARK   75  A    between atoms: _201  and  _202
REMARK   76  A    between atoms: _205  and  _207
REMARK   77  A    between atoms: _207  and  _208
REMARK   78  A    between atoms: _207  and  _210
REMARK   79  A    between atoms: _210  and  _211
REMARK   80  A    between atoms: _216  and  _218
REMARK   81  A    between atoms: _218  and  _219
REMARK   82  A    between atoms: _222  and  _224
REMARK   83  A    between atoms: _224  and  _225
REMARK   84  A    between atoms: _227  and  _229
REMARK   85  A    between atoms: _229  and  _230
REMARK   86  A    between atoms: _232  and  _234
REMARK   87  A    between atoms: _234  and  _235
REMARK   88  A    between atoms: _234  and  _237
REMARK   89  A    between atoms: _237  and  _238
REMARK   90  A    between atoms: _241  and  _243
REMARK   91  A    between atoms: _243  and  _244
REMARK   92  A    between atoms: _243  and  _246
REMARK   93  A    between atoms: _246  and  _247
REMARK   94  A    between atoms: _250  and  _252
REMARK   95  A    between atoms: _252  and  _253
REMARK   96  A    between atoms: _252  and  _255
REMARK   97  A    between atoms: _255  and  _256
REMARK   98  A    between atoms: _261  and  _263
REMARK   99  A    between atoms: _263  and  _264
REMARK  100  A    between atoms: _263  and  _266
REMARK  101  A    between atoms: _269  and  _271
REMARK  102  A    between atoms: _271  and  _272
REMARK  103  A    between atoms: _271  and  _274
REMARK  104  A    between atoms: _274  and  _275
REMARK  105  A    between atoms: _280  and  _282
REMARK  106  A    between atoms: _282  and  _283
REMARK  107  A    between atoms: _282  and  _285
REMARK  108  A    between atoms: _285  and  _286
REMARK  109  A    between atoms: _289  and  _291
REMARK  110  A    between atoms: _291  and  _292
REMARK  111  A    between atoms: _291  and  _294
REMARK  112  A    between atoms: _294  and  _295
REMARK  113  A    between atoms: _297  and  _299
REMARK  114  A    between atoms: _299  and  _300
REMARK  115  A    between atoms: _299  and  _302
REMARK  116  A    between atoms: _302  and  _303
REMARK  117  A    between atoms: _308  and  _310
REMARK  118  A    between atoms: _310  and  _311
REMARK  119  A    between atoms: _310  and  _313
REMARK  120  A    between atoms: _316  and  _318
REMARK  121  A    between atoms: _318  and  _319
REMARK  122  A    between atoms: _318  and  _321
REMARK  123  A    between atoms: _321  and  _322
REMARK  124  A    between atoms: _327  and  _329
REMARK  125  A    between atoms: _329  and  _330
REMARK  126  A    between atoms: _333  and  _335
REMARK  127  A    between atoms: _335  and  _336
REMARK  128  A    between atoms: _335  and  _338
REMARK  129  A    between atoms: _338  and  _339
REMARK  130  A    between atoms: _339  and  _340
REMARK  131  A    between atoms: _340  and  _341
REMARK  132  A    between atoms: _350  and  _352
REMARK  133  A    between atoms: _352  and  _353
REMARK  134  A    between atoms: _352  and  _355
REMARK  135  A    between atoms: _355  and  _356
REMARK  136  A    between atoms: _356  and  _357
REMARK  137  A    between atoms: _360  and  _362
REMARK  138  A    between atoms: _362  and  _363
REMARK  139  A    between atoms: _362  and  _365
REMARK  140  A    between atoms: _365  and  _366
REMARK  141  A    between atoms: _372  and  _374
REMARK  142  A    between atoms: _374  and  _375
REMARK  143  A    between atoms: _374  and  _377
REMARK  144  A    between atoms: _377  and  _378
REMARK  145  A    between atoms: _378  and  _379
REMARK  146  A    between atoms: _379  and  _380
REMARK  147  A    between atoms: _389  and  _391
REMARK  148  A    between atoms: _391  and  _392
REMARK  149  A    between atoms: _391  and  _394
REMARK  150  A    between atoms: _394  and  _395
REMARK  151  A    between atoms: _395  and  _396
REMARK  152  A    between atoms: _396  and  _397
REMARK  153  A    between atoms: _406  and  _408
REMARK  154  A    between atoms: _408  and  _409
REMARK  155  A    between atoms: _408  and  _411
REMARK  156  A    between atoms: _411  and  _412
REMARK  157  A    between atoms: _417  and  _419
REMARK  158  A    between atoms: _419  and  _420
REMARK  159  A    between atoms: _419  and  _422
REMARK  160  A    between atoms: _422  and  _423
REMARK  161  A    between atoms: _426  and  _428
REMARK  162  A    between atoms: _428  and  _429
REMARK  163  A    between atoms: _428  and  _431
REMARK  164  A    between atoms: _434  and  _436
REMARK  165  A    between atoms: _436  and  _437
REMARK  166  A    between atoms: _439  and  _441
REMARK  167  A    between atoms: _441  and  _442
REMARK  168  A    between atoms: _441  and  _444
REMARK  169  A    between atoms: _444  and  _445
REMARK  170  A    between atoms: _448  and  _450
REMARK  171  A    between atoms: _450  and  _451
REMARK  172  A    between atoms: _453  and  _455
REMARK  173  A    between atoms: _455  and  _456
REMARK  174  A    between atoms: _455  and  _458
REMARK  175  A    between atoms: _458  and  _459
REMARK  176  A    between atoms: _464  and  _465
REMARK  177  A    between atoms: _467  and  _469
REMARK  178  A    between atoms: _469  and  _470
REMARK  179  A    between atoms: _469  and  _472
REMARK  180  A    between atoms: _472  and  _473
REMARK  181  A    between atoms: _478  and  _480
REMARK  182  A    between atoms: _480  and  _481
REMARK  183  A    between atoms: _480  and  _483
REMARK  184  A    between atoms: _486  and  _488
REMARK  185  A    between atoms: _488  and  _489
REMARK  186  A    between atoms: _492  and  _494
REMARK  187  A    between atoms: _494  and  _495
REMARK  188  A    between atoms: _494  and  _497
REMARK  189  A    between atoms: _497  and  _498
REMARK  190  A    between atoms: _498  and  _499
REMARK  191  A    between atoms: _499  and  _500
REMARK  192  A    between atoms: _509  and  _511
REMARK  193  A    between atoms: _511  and  _512
REMARK  194  A    between atoms: _511  and  _514
REMARK  195  A    between atoms: _514  and  _515
REMARK  196  A    between atoms: _518  and  _520
REMARK  197  A    between atoms: _520  and  _521
REMARK  198  A    between atoms: _524  and  _526
REMARK  199  A    between atoms: _526  and  _527
REMARK  200  A    between atoms: _530  and  _532
REMARK  201  A    between atoms: _532  and  _533
REMARK  202  A    between atoms: _532  and  _535
REMARK  203  A    between atoms: _535  and  _536
REMARK  204  A    between atoms: _536  and  _537
REMARK                            x       y       z     vdW  Elec       q    Type
REMARK                         _______ _______ _______ _____ _____    ______ ____
ROOT
ATOM      1  O   HOH     1      -8.267  29.947  72.841  0.00  0.00    +0.000 OA
ENDROOT
TORSDOF 0
REMARK  Name = ../refined-set-2016/4kiu/4kiu_pocket.pdb
REMARK  204 active torsions:
REMARK  status: ('A' for Active; 'I' for Inactive)
REMARK    1  A    between atoms: _1  and  _3
REMARK    2  A    between atoms: _3  and  _4
REMARK    3  A    between atoms: _3  and  _6
REMARK    4  A    between atoms: _6  and  _7
REMARK    5  A    between atoms: _12  and  _14
REMARK    6  A    between atoms: _14  and  _15
REMARK    7  A    between atoms: _18  and  _19
REMARK    8  A    between atoms: _24  and  _26
REMARK    9  A    between atoms: _26  and  _27
REMARK   10  A    between atoms: _26  and  _29
REMARK   11  A    between atoms: _29  and  _30
REMARK   12  A    between atoms: _35  and  _37
REMARK   13  A    between atoms: _37  and  _38
REMARK   14  A    between atoms: _37  and  _40
REMARK   15  A    between atoms: _40  and  _41
REMARK   16  A    between atoms: _44  and  _46
REMARK   17  A    between atoms: _46  and  _47
REMARK   18  A    between atoms: _49  and  _51
REMARK   19  A    between atoms: _51  and  _52
REMARK   20  A    between atoms: _51  and  _54
REMARK   21  A    between atoms: _54  and  _55
REMARK   22  A    between atoms: _55  and  _56
REMARK   23  A    between atoms: _56  and  _57
REMARK   24  A    between atoms: _66  and  _68
REMARK   25  A    between atoms: _68  and  _69
REMARK   26  A    between atoms: _68  and  _71
REMARK   27  A    between atoms: _71  and  _72
REMARK   28  A    between atoms: _75  and  _77
REMARK   29  A    between atoms: _77  and  _78
REMARK   30  A    between atoms: _82  and  _83
REMARK   31  A    between atoms: _82  and  _85
REMARK   32  A    between atoms: _85  and  _86
REMARK   33  A    between atoms: _86  and  _87
REMARK   34  A    between atoms: _87  and  _88
REMARK   35  A    between atoms: _97  and  _99
REMARK   36  A    between atoms: _99  and  _100
REMARK   37  A    between atoms: _99  and  _102
REMARK   38  A    between atoms: _102  and  _103
REMARK   39  A    between atoms: _103  and  _104
REMARK   40  A    between atoms: _104  and  _105
REMARK   41  A    between atoms: _114  and  _116
REMARK   42  A    between atoms: _116  and  _117
REMARK   43  A    between atoms: _116  and  _119
REMARK   44  A    between atoms: _119  and  _120
REMARK   45  A    between atoms: _120  and  _121
REMARK   46  A    between atoms: _125  and  _126
REMARK   47  A    between atoms: _131  and  _133
REMARK   48  A    between atoms: _133  and  _134
REMARK   49  A    between atoms: _137  and  _139
REMARK   50  A    between atoms: _139  and  _140
REMARK   51  A    between atoms: _139  and  _142
REMARK   52  A    between atoms: _145  and  _147
REMARK   53  A    between atoms: _147  and  _148
REMARK   54  A    between atoms: _147  and  _150
REMARK   55  A    between atoms: _150  and  _151
REMARK   56  A    between atoms: _156  and  _157
REMARK   57  A    between atoms: _159  and  _161
REMARK   58  A    between atoms: _161  and  _162
REMARK   59  A    between atoms: _164  and  _166
REMARK   60  A    between atoms: _166  and  _167
REMARK   61  A    between atoms: _166  and  _169
REMARK   62  A    between atoms: _169  and  _170
REMARK   63  A    between atoms: _173  and  _175
REMARK   64  A    between atoms: _175  and  _176
REMARK   65  A    between atoms: _175  and  _178
REMARK   66  A    between atoms: _178  and  _179
REMARK   67  A    between atoms: _184  and  _186
REMARK   68  A    between atoms: _186  and  _187
REMARK   69  A    between atoms: _186  and  _189
REMARK   70  A    between atoms: _189  and  _190
REMARK   71  A    between atoms: _190  and  _191
REMARK   72  A    between atoms: _196  and  _198
REMARK   73  A    between atoms: _198  and  _199
REMARK   74  A    between atoms: _198  and  _201
REMARK   75  A    between atoms: _201  and  _202
REMARK   76  A    between atoms: _205  and  _207
REMARK   77  A    between atoms: _207  and  _208
REMARK   78  A    between atoms: _207  and  _210
REMARK   79  A    between atoms: _210  and  _211
REMARK   80  A    between atoms: _216  and  _218
REMARK   81  A    between atoms: _218  and  _219
REMARK   82  A    between atoms: _222  and  _224
REMARK   83  A    between atoms: _224  and  _225
REMARK   84  A    between atoms: _227  and  _229
REMARK   85  A    between atoms: _229  and  _230
REMARK   86  A    between atoms: _232  and  _234
REMARK   87  A    between atoms: _234  and  _235
REMARK   88  A    between atoms: _234  and  _237
REMARK   89  A    between atoms: _237  and  _238
REMARK   90  A    between atoms: _241  and  _243
REMARK   91  A    between atoms: _243  and  _244
REMARK   92  A    between atoms: _243  and  _246
REMARK   93  A    between atoms: _246  and  _247
REMARK   94  A    between atoms: _250  and  _252
REMARK   95  A    between atoms: _252  and  _253
REMARK   96  A    between atoms: _252  and  _255
REMARK   97  A    between atoms: _255  and  _256
REMARK   98  A    between atoms: _261  and  _263
REMARK   99  A    between atoms: _263  and  _264
REMARK  100  A    between atoms: _263  and  _266
REMARK  101  A    between atoms: _269  and  _271
REMARK  102  A    between atoms: _271  and  _272
REMARK  103  A    between atoms: _271  and  _274
REMARK  104  A    between atoms: _274  and  _275
REMARK  105  A    between atoms: _280  and  _282
REMARK  106  A    between atoms: _282  and  _283
REMARK  107  A    between atoms: _282  and  _285
REMARK  108  A    between atoms: _285  and  _286
REMARK  109  A    between atoms: _289  and  _291
REMARK  110  A    between atoms: _291  and  _292
REMARK  111  A    between atoms: _291  and  _294
REMARK  112  A    between atoms: _294  and  _295
REMARK  113  A    between atoms: _297  and  _299
REMARK  114  A    between atoms: _299  and  _300
REMARK  115  A    between atoms: _299  and  _302
REMARK  116  A    between atoms: _302  and  _303
REMARK  117  A    between atoms: _308  and  _310
REMARK  118  A    between atoms: _310  and  _311
REMARK  119  A    between atoms: _310  and  _313
REMARK  120  A    between atoms: _316  and  _318
REMARK  121  A    between atoms: _318  and  _319
REMARK  122  A    between atoms: _318  and  _321
REMARK  123  A    between atoms: _321  and  _322
REMARK  124  A    between atoms: _327  and  _329
REMARK  125  A    between atoms: _329  and  _330
REMARK  126  A    between atoms: _333  and  _335
REMARK  127  A    between atoms: _335  and  _336
REMARK  128  A    between atoms: _335  and  _338
REMARK  129  A    between atoms: _338  and  _339
REMARK  130  A    between atoms: _339  and  _340
REMARK  131  A    between atoms: _340  and  _341
REMARK  132  A    between atoms: _350  and  _352
REMARK  133  A    between atoms: _352  and  _353
REMARK  134  A    between atoms: _352  and  _355
REMARK  135  A    between atoms: _355  and  _356
REMARK  136  A    between atoms: _356  and  _357
REMARK  137  A    between atoms: _360  and  _362
REMARK  138  A    between atoms: _362  and  _363
REMARK  139  A    between atoms: _362  and  _365
REMARK  140  A    between atoms: _365  and  _366
REMARK  141  A    between atoms: _372  and  _374
REMARK  142  A    between atoms: _374  and  _375
REMARK  143  A    between atoms: _374  and  _377
REMARK  144  A    between atoms: _377  and  _378
REMARK  145  A    between atoms: _378  and  _379
REMARK  146  A    between atoms: _379  and  _380
REMARK  147  A    between atoms: _389  and  _391
REMARK  148  A    between atoms: _391  and  _392
REMARK  149  A    between atoms: _391  and  _394
REMARK  150  A    between atoms: _394  and  _395
REMARK  151  A    between atoms: _395  and  _396
REMARK  152  A    between atoms: _396  and  _397
REMARK  153  A    between atoms: _406  and  _408
REMARK  154  A    between atoms: _408  and  _409
REMARK  155  A    between atoms: _408  and  _411
REMARK  156  A    between atoms: _411  and  _412
REMARK  157  A    between atoms: _417  and  _419
REMARK  158  A    between atoms: _419  and  _420
REMARK  159  A    between atoms: _419  and  _422
REMARK  160  A    between atoms: _422  and  _423
REMARK  161  A    between atoms: _426  and  _428
REMARK  162  A    between atoms: _428  and  _429
REMARK  163  A    between atoms: _428  and  _431
REMARK  164  A    between atoms: _434  and  _436
REMARK  165  A    between atoms: _436  and  _437
REMARK  166  A    between atoms: _439  and  _441
REMARK  167  A    between atoms: _441  and  _442
REMARK  168  A    between atoms: _441  and  _444
REMARK  169  A    between atoms: _444  and  _445
REMARK  170  A    between atoms: _448  and  _450
REMARK  171  A    between atoms: _450  and  _451
REMARK  172  A    between atoms: _453  and  _455
REMARK  173  A    between atoms: _455  and  _456
REMARK  174  A    between atoms: _455  and  _458
REMARK  175  A    between atoms: _458  and  _459
REMARK  176  A    between atoms: _464  and  _465
REMARK  177  A    between atoms: _467  and  _469
REMARK  178  A    between atoms: _469  and  _470
REMARK  179  A    between atoms: _469  and  _472
REMARK  180  A    between atoms: _472  and  _473
REMARK  181  A    between atoms: _478  and  _480
REMARK  182  A    between atoms: _480  and  _481
REMARK  183  A    between atoms: _480  and  _483
REMARK  184  A    between atoms: _486  and  _488
REMARK  185  A    between atoms: _488  and  _489
REMARK  186  A    between atoms: _492  and  _494
REMARK  187  A    between atoms: _494  and  _495
REMARK  188  A    between atoms: _494  and  _497
REMARK  189  A    between atoms: _497  and  _498
REMARK  190  A    between atoms: _498  and  _499
REMARK  191  A    between atoms: _499  and  _500
REMARK  192  A    between atoms: _509  and  _511
REMARK  193  A    between atoms: _511  and  _512
REMARK  194  A    between atoms: _511  and  _514
REMARK  195  A    between atoms: _514  and  _515
REMARK  196  A    between atoms: _518  and  _520
REMARK  197  A    between atoms: _520  and  _521
REMARK  198  A    between atoms: _524  and  _526
REMARK  199  A    between atoms: _526  and  _527
REMARK  200  A    between atoms: _530  and  _532
REMARK  201  A    between atoms: _532  and  _533
REMARK  202  A    between atoms: _532  and  _535
REMARK  203  A    between atoms: _535  and  _536
REMARK  204  A    between atoms: _536  and  _537
REMARK                            x       y       z     vdW  Elec       q    Type
REMARK                         _______ _______ _______ _____ _____    ______ ____
ROOT
ATOM      1  O   HOH     1      -6.442  33.688  77.079  0.00  0.00    +0.000 OA
ENDROOT
TORSDOF 0
REMARK  Name = ../refined-set-2016/4kiu/4kiu_pocket.pdb
REMARK  204 active torsions:
REMARK  status: ('A' for Active; 'I' for Inactive)
REMARK    1  A    between atoms: _1  and  _3
REMARK    2  A    between atoms: _3  and  _4
REMARK    3  A    between atoms: _3  and  _6
REMARK    4  A    between atoms: _6  and  _7
REMARK    5  A    between atoms: _12  and  _14
REMARK    6  A    between atoms: _14  and  _15
REMARK    7  A    between atoms: _18  and  _19
REMARK    8  A    between atoms: _24  and  _26
REMARK    9  A    between atoms: _26  and  _27
REMARK   10  A    between atoms: _26  and  _29
REMARK   11  A    between atoms: _29  and  _30
REMARK   12  A    between atoms: _35  and  _37
REMARK   13  A    between atoms: _37  and  _38
REMARK   14  A    between atoms: _37  and  _40
REMARK   15  A    between atoms: _40  and  _41
REMARK   16  A    between atoms: _44  and  _46
REMARK   17  A    between atoms: _46  and  _47
REMARK   18  A    between atoms: _49  and  _51
REMARK   19  A    between atoms: _51  and  _52
REMARK   20  A    between atoms: _51  and  _54
REMARK   21  A    between atoms: _54  and  _55
REMARK   22  A    between atoms: _55  and  _56
REMARK   23  A    between atoms: _56  and  _57
REMARK   24  A    between atoms: _66  and  _68
REMARK   25  A    between atoms: _68  and  _69
REMARK   26  A    between atoms: _68  and  _71
REMARK   27  A    between atoms: _71  and  _72
REMARK   28  A    between atoms: _75  and  _77
REMARK   29  A    between atoms: _77  and  _78
REMARK   30  A    between atoms: _82  and  _83
REMARK   31  A    between atoms: _82  and  _85
REMARK   32  A    between atoms: _85  and  _86
REMARK   33  A    between atoms: _86  and  _87
REMARK   34  A    between atoms: _87  and  _88
REMARK   35  A    between atoms: _97  and  _99
REMARK   36  A    between atoms: _99  and  _100
REMARK   37  A    between atoms: _99  and  _102
REMARK   38  A    between atoms: _102  and  _103
REMARK   39  A    between atoms: _103  and  _104
REMARK   40  A    between atoms: _104  and  _105
REMARK   41  A    between atoms: _114  and  _116
REMARK   42  A    between atoms: _116  and  _117
REMARK   43  A    between atoms: _116  and  _119
REMARK   44  A    between atoms: _119  and  _120
REMARK   45  A    between atoms: _120  and  _121
REMARK   46  A    between atoms: _125  and  _126
REMARK   47  A    between atoms: _131  and  _133
REMARK   48  A    between atoms: _133  and  _134
REMARK   49  A    between atoms: _137  and  _139
REMARK   50  A    between atoms: _139  and  _140
REMARK   51  A    between atoms: _139  and  _142
REMARK   52  A    between atoms: _145  and  _147
REMARK   53  A    between atoms: _147  and  _148
REMARK   54  A    between atoms: _147  and  _150
REMARK   55  A    between atoms: _150  and  _151
REMARK   56  A    between atoms: _156  and  _157
REMARK   57  A    between atoms: _159  and  _161
REMARK   58  A    between atoms: _161  and  _162
REMARK   59  A    between atoms: _164  and  _166
REMARK   60  A    between atoms: _166  and  _167
REMARK   61  A    between atoms: _166  and  _169
REMARK   62  A    between atoms: _169  and  _170
REMARK   63  A    between atoms: _173  and  _175
REMARK   64  A    between atoms: _175  and  _176
REMARK   65  A    between atoms: _175  and  _178
REMARK   66  A    between atoms: _178  and  _179
REMARK   67  A    between atoms: _184  and  _186
REMARK   68  A    between atoms: _186  and  _187
REMARK   69  A    between atoms: _186  and  _189
REMARK   70  A    between atoms: _189  and  _190
REMARK   71  A    between atoms: _190  and  _191
REMARK   72  A    between atoms: _196  and  _198
REMARK   73  A    between atoms: _198  and  _199
REMARK   74  A    between atoms: _198  and  _201
REMARK   75  A    between atoms: _201  and  _202
REMARK   76  A    between atoms: _205  and  _207
REMARK   77  A    between atoms: _207  and  _208
REMARK   78  A    between atoms: _207  and  _210
REMARK   79  A    between atoms: _210  and  _211
REMARK   80  A    between atoms: _216  and  _218
REMARK   81  A    between atoms: _218  and  _219
REMARK   82  A    between atoms: _222  and  _224
REMARK   83  A    between atoms: _224  and  _225
REMARK   84  A    between atoms: _227  and  _229
REMARK   85  A    between atoms: _229  and  _230
REMARK   86  A    between atoms: _232  and  _234
REMARK   87  A    between atoms: _234  and  _235
REMARK   88  A    between atoms: _234  and  _237
REMARK   89  A    between atoms: _237  and  _238
REMARK   90  A    between atoms: _241  and  _243
REMARK   91  A    between atoms: _243  and  _244
REMARK   92  A    between atoms: _243  and  _246
REMARK   93  A    between atoms: _246  and  _247
REMARK   94  A    between atoms: _250  and  _252
REMARK   95  A    between atoms: _252  and  _253
REMARK   96  A    between atoms: _252  and  _255
REMARK   97  A    between atoms: _255  and  _256
REMARK   98  A    between atoms: _261  and  _263
REMARK   99  A    between atoms: _263  and  _264
REMARK  100  A    between atoms: _263  and  _266
REMARK  101  A    between atoms: _269  and  _271
REMARK  102  A    between atoms: _271  and  _272
REMARK  103  A    between atoms: _271  and  _274
REMARK  104  A    between atoms: _274  and  _275
REMARK  105  A    between atoms: _280  and  _282
REMARK  106  A    between atoms: _282  and  _283
REMARK  107  A    between atoms: _282  and  _285
REMARK  108  A    between atoms: _285  and  _286
REMARK  109  A    between atoms: _289  and  _291
REMARK  110  A    between atoms: _291  and  _292
REMARK  111  A    between atoms: _291  and  _294
REMARK  112  A    between atoms: _294  and  _295
REMARK  113  A    between atoms: _297  and  _299
REMARK  114  A    between atoms: _299  and  _300
REMARK  115  A    between atoms: _299  and  _302
REMARK  116  A    between atoms: _302  and  _303
REMARK  117  A    between atoms: _308  and  _310
REMARK  118  A    between atoms: _310  and  _311
REMARK  119  A    between atoms: _310  and  _313
REMARK  120  A    between atoms: _316  and  _318
REMARK  121  A    between atoms: _318  and  _319
REMARK  122  A    between atoms: _318  and  _321
REMARK  123  A    between atoms: _321  and  _322
REMARK  124  A    between atoms: _327  and  _329
REMARK  125  A    between atoms: _329  and  _330
REMARK  126  A    between atoms: _333  and  _335
REMARK  127  A    between atoms: _335  and  _336
REMARK  128  A    between atoms: _335  and  _338
REMARK  129  A    between atoms: _338  and  _339
REMARK  130  A    between atoms: _339  and  _340
REMARK  131  A    between atoms: _340  and  _341
REMARK  132  A    between atoms: _350  and  _352
REMARK  133  A    between atoms: _352  and  _353
REMARK  134  A    between atoms: _352  and  _355
REMARK  135  A    between atoms: _355  and  _356
REMARK  136  A    between atoms: _356  and  _357
REMARK  137  A    between atoms: _360  and  _362
REMARK  138  A    between atoms: _362  and  _363
REMARK  139  A    between atoms: _362  and  _365
REMARK  140  A    between atoms: _365  and  _366
REMARK  141  A    between atoms: _372  and  _374
REMARK  142  A    between atoms: _374  and  _375
REMARK  143  A    between atoms: _374  and  _377
REMARK  144  A    between atoms: _377  and  _378
REMARK  145  A    between atoms: _378  and  _379
REMARK  146  A    between atoms: _379  and  _380
REMARK  147  A    between atoms: _389  and  _391
REMARK  148  A    between atoms: _391  and  _392
REMARK  149  A    between atoms: _391  and  _394
REMARK  150  A    between atoms: _394  and  _395
REMARK  151  A    between atoms: _395  and  _396
REMARK  152  A    between atoms: _396  and  _397
REMARK  153  A    between atoms: _406  and  _408
REMARK  154  A    between atoms: _408  and  _409
REMARK  155  A    between atoms: _408  and  _411
REMARK  156  A    between atoms: _411  and  _412
REMARK  157  A    between atoms: _417  and  _419
REMARK  158  A    between atoms: _419  and  _420
REMARK  159  A    between atoms: _419  and  _422
REMARK  160  A    between atoms: _422  and  _423
REMARK  161  A    between atoms: _426  and  _428
REMARK  162  A    between atoms: _428  and  _429
REMARK  163  A    between atoms: _428  and  _431
REMARK  164  A    between atoms: _434  and  _436
REMARK  165  A    between atoms: _436  and  _437
REMARK  166  A    between atoms: _439  and  _441
REMARK  167  A    between atoms: _441  and  _442
REMARK  168  A    between atoms: _441  and  _444
REMARK  169  A    between atoms: _444  and  _445
REMARK  170  A    between atoms: _448  and  _450
REMARK  171  A    between atoms: _450  and  _451
REMARK  172  A    between atoms: _453  and  _455
REMARK  173  A    between atoms: _455  and  _456
REMARK  174  A    between atoms: _455  and  _458
REMARK  175  A    between atoms: _458  and  _459
REMARK  176  A    between atoms: _464  and  _465
REMARK  177  A    between atoms: _467  and  _469
REMARK  178  A    between atoms: _469  and  _470
REMARK  179  A    between atoms: _469  and  _472
REMARK  180  A    between atoms: _472  and  _473
REMARK  181  A    between atoms: _478  and  _480
REMARK  182  A    between atoms: _480  and  _481
REMARK  183  A    between atoms: _480  and  _483
REMARK  184  A    between atoms: _486  and  _488
REMARK  185  A    between atoms: _488  and  _489
REMARK  186  A    between atoms: _492  and  _494
REMARK  187  A    between atoms: _494  and  _495
REMARK  188  A    between atoms: _494  and  _497
REMARK  189  A    between atoms: _497  and  _498
REMARK  190  A    between atoms: _498  and  _499
REMARK  191  A    between atoms: _499  and  _500
REMARK  192  A    between atoms: _509  and  _511
REMARK  193  A    between atoms: _511  and  _512
REMARK  194  A    between atoms: _511  and  _514
REMARK  195  A    between atoms: _514  and  _515
REMARK  196  A    between atoms: _518  and  _520
REMARK  197  A    between atoms: _520  and  _521
REMARK  198  A    between atoms: _524  and  _526
REMARK  199  A    between atoms: _526  and  _527
REMARK  200  A    between atoms: _530  and  _532
REMARK  201  A    between atoms: _532  and  _533
REMARK  202  A    between atoms: _532  and  _535
REMARK  203  A    between atoms: _535  and  _536
REMARK  204  A    between atoms: _536  and  _537
REMARK                            x       y       z     vdW  Elec       q    Type
REMARK                         _______ _______ _______ _____ _____    ______ ____
ROOT
ATOM      1  O   HOH     1      -4.084  24.667  80.309  0.00  0.00    +0.000 OA
ENDROOT
TORSDOF 0
REMARK  Name = ../refined-set-2016/4kiu/4kiu_pocket.pdb
REMARK  204 active torsions:
REMARK  status: ('A' for Active; 'I' for Inactive)
REMARK    1  A    between atoms: _1  and  _3
REMARK    2  A    between atoms: _3  and  _4
REMARK    3  A    between atoms: _3  and  _6
REMARK    4  A    between atoms: _6  and  _7
REMARK    5  A    between atoms: _12  and  _14
REMARK    6  A    between atoms: _14  and  _15
REMARK    7  A    between atoms: _18  and  _19
REMARK    8  A    between atoms: _24  and  _26
REMARK    9  A    between atoms: _26  and  _27
REMARK   10  A    between atoms: _26  and  _29
REMARK   11  A    between atoms: _29  and  _30
REMARK   12  A    between atoms: _35  and  _37
REMARK   13  A    between atoms: _37  and  _38
REMARK   14  A    between atoms: _37  and  _40
REMARK   15  A    between atoms: _40  and  _41
REMARK   16  A    between atoms: _44  and  _46
REMARK   17  A    between atoms: _46  and  _47
REMARK   18  A    between atoms: _49  and  _51
REMARK   19  A    between atoms: _51  and  _52
REMARK   20  A    between atoms: _51  and  _54
REMARK   21  A    between atoms: _54  and  _55
REMARK   22  A    between atoms: _55  and  _56
REMARK   23  A    between atoms: _56  and  _57
REMARK   24  A    between atoms: _66  and  _68
REMARK   25  A    between atoms: _68  and  _69
REMARK   26  A    between atoms: _68  and  _71
REMARK   27  A    between atoms: _71  and  _72
REMARK   28  A    between atoms: _75  and  _77
REMARK   29  A    between atoms: _77  and  _78
REMARK   30  A    between atoms: _82  and  _83
REMARK   31  A    between atoms: _82  and  _85
REMARK   32  A    between atoms: _85  and  _86
REMARK   33  A    between atoms: _86  and  _87
REMARK   34  A    between atoms: _87  and  _88
REMARK   35  A    between atoms: _97  and  _99
REMARK   36  A    between atoms: _99  and  _100
REMARK   37  A    between atoms: _99  and  _102
REMARK   38  A    between atoms: _102  and  _103
REMARK   39  A    between atoms: _103  and  _104
REMARK   40  A    between atoms: _104  and  _105
REMARK   41  A    between atoms: _114  and  _116
REMARK   42  A    between atoms: _116  and  _117
REMARK   43  A    between atoms: _116  and  _119
REMARK   44  A    between atoms: _119  and  _120
REMARK   45  A    between atoms: _120  and  _121
REMARK   46  A    between atoms: _125  and  _126
REMARK   47  A    between atoms: _131  and  _133
REMARK   48  A    between atoms: _133  and  _134
REMARK   49  A    between atoms: _137  and  _139
REMARK   50  A    between atoms: _139  and  _140
REMARK   51  A    between atoms: _139  and  _142
REMARK   52  A    between atoms: _145  and  _147
REMARK   53  A    between atoms: _147  and  _148
REMARK   54  A    between atoms: _147  and  _150
REMARK   55  A    between atoms: _150  and  _151
REMARK   56  A    between atoms: _156  and  _157
REMARK   57  A    between atoms: _159  and  _161
REMARK   58  A    between atoms: _161  and  _162
REMARK   59  A    between atoms: _164  and  _166
REMARK   60  A    between atoms: _166  and  _167
REMARK   61  A    between atoms: _166  and  _169
REMARK   62  A    between atoms: _169  and  _170
REMARK   63  A    between atoms: _173  and  _175
REMARK   64  A    between atoms: _175  and  _176
REMARK   65  A    between atoms: _175  and  _178
REMARK   66  A    between atoms: _178  and  _179
REMARK   67  A    between atoms: _184  and  _186
REMARK   68  A    between atoms: _186  and  _187
REMARK   69  A    between atoms: _186  and  _189
REMARK   70  A    between atoms: _189  and  _190
REMARK   71  A    between atoms: _190  and  _191
REMARK   72  A    between atoms: _196  and  _198
REMARK   73  A    between atoms: _198  and  _199
REMARK   74  A    between atoms: _198  and  _201
REMARK   75  A    between atoms: _201  and  _202
REMARK   76  A    between atoms: _205  and  _207
REMARK   77  A    between atoms: _207  and  _208
REMARK   78  A    between atoms: _207  and  _210
REMARK   79  A    between atoms: _210  and  _211
REMARK   80  A    between atoms: _216  and  _218
REMARK   81  A    between atoms: _218  and  _219
REMARK   82  A    between atoms: _222  and  _224
REMARK   83  A    between atoms: _224  and  _225
REMARK   84  A    between atoms: _227  and  _229
REMARK   85  A    between atoms: _229  and  _230
REMARK   86  A    between atoms: _232  and  _234
REMARK   87  A    between atoms: _234  and  _235
REMARK   88  A    between atoms: _234  and  _237
REMARK   89  A    between atoms: _237  and  _238
REMARK   90  A    between atoms: _241  and  _243
REMARK   91  A    between atoms: _243  and  _244
REMARK   92  A    between atoms: _243  and  _246
REMARK   93  A    between atoms: _246  and  _247
REMARK   94  A    between atoms: _250  and  _252
REMARK   95  A    between atoms: _252  and  _253
REMARK   96  A    between atoms: _252  and  _255
REMARK   97  A    between atoms: _255  and  _256
REMARK   98  A    between atoms: _261  and  _263
REMARK   99  A    between atoms: _263  and  _264
REMARK  100  A    between atoms: _263  and  _266
REMARK  101  A    between atoms: _269  and  _271
REMARK  102  A    between atoms: _271  and  _272
REMARK  103  A    between atoms: _271  and  _274
REMARK  104  A    between atoms: _274  and  _275
REMARK  105  A    between atoms: _280  and  _282
REMARK  106  A    between atoms: _282  and  _283
REMARK  107  A    between atoms: _282  and  _285
REMARK  108  A    between atoms: _285  and  _286
REMARK  109  A    between atoms: _289  and  _291
REMARK  110  A    between atoms: _291  and  _292
REMARK  111  A    between atoms: _291  and  _294
REMARK  112  A    between atoms: _294  and  _295
REMARK  113  A    between atoms: _297  and  _299
REMARK  114  A    between atoms: _299  and  _300
REMARK  115  A    between atoms: _299  and  _302
REMARK  116  A    between atoms: _302  and  _303
REMARK  117  A    between atoms: _308  and  _310
REMARK  118  A    between atoms: _310  and  _311
REMARK  119  A    between atoms: _310  and  _313
REMARK  120  A    between atoms: _316  and  _318
REMARK  121  A    between atoms: _318  and  _319
REMARK  122  A    between atoms: _318  and  _321
REMARK  123  A    between atoms: _321  and  _322
REMARK  124  A    between atoms: _327  and  _329
REMARK  125  A    between atoms: _329  and  _330
REMARK  126  A    between atoms: _333  and  _335
REMARK  127  A    between atoms: _335  and  _336
REMARK  128  A    between atoms: _335  and  _338
REMARK  129  A    between atoms: _338  and  _339
REMARK  130  A    between atoms: _339  and  _340
REMARK  131  A    between atoms: _340  and  _341
REMARK  132  A    between atoms: _350  and  _352
REMARK  133  A    between atoms: _352  and  _353
REMARK  134  A    between atoms: _352  and  _355
REMARK  135  A    between atoms: _355  and  _356
REMARK  136  A    between atoms: _356  and  _357
REMARK  137  A    between atoms: _360  and  _362
REMARK  138  A    between atoms: _362  and  _363
REMARK  139  A    between atoms: _362  and  _365
REMARK  140  A    between atoms: _365  and  _366
REMARK  141  A    between atoms: _372  and  _374
REMARK  142  A    between atoms: _374  and  _375
REMARK  143  A    between atoms: _374  and  _377
REMARK  144  A    between atoms: _377  and  _378
REMARK  145  A    between atoms: _378  and  _379
REMARK  146  A    between atoms: _379  and  _380
REMARK  147  A    between atoms: _389  and  _391
REMARK  148  A    between atoms: _391  and  _392
REMARK  149  A    between atoms: _391  and  _394
REMARK  150  A    between atoms: _394  and  _395
REMARK  151  A    between atoms: _395  and  _396
REMARK  152  A    between atoms: _396  and  _397
REMARK  153  A    between atoms: _406  and  _408
REMARK  154  A    between atoms: _408  and  _409
REMARK  155  A    between atoms: _408  and  _411
REMARK  156  A    between atoms: _411  and  _412
REMARK  157  A    between atoms: _417  and  _419
REMARK  158  A    between atoms: _419  and  _420
REMARK  159  A    between atoms: _419  and  _422
REMARK  160  A    between atoms: _422  and  _423
REMARK  161  A    between atoms: _426  and  _428
REMARK  162  A    between atoms: _428  and  _429
REMARK  163  A    between atoms: _428  and  _431
REMARK  164  A    between atoms: _434  and  _436
REMARK  165  A    between atoms: _436  and  _437
REMARK  166  A    between atoms: _439  and  _441
REMARK  167  A    between atoms: _441  and  _442
REMARK  168  A    between atoms: _441  and  _444
REMARK  169  A    between atoms: _444  and  _445
REMARK  170  A    between atoms: _448  and  _450
REMARK  171  A    between atoms: _450  and  _451
REMARK  172  A    between atoms: _453  and  _455
REMARK  173  A    between atoms: _455  and  _456
REMARK  174  A    between atoms: _455  and  _458
REMARK  175  A    between atoms: _458  and  _459
REMARK  176  A    between atoms: _464  and  _465
REMARK  177  A    between atoms: _467  and  _469
REMARK  178  A    between atoms: _469  and  _470
REMARK  179  A    between atoms: _469  and  _472
REMARK  180  A    between atoms: _472  and  _473
REMARK  181  A    between atoms: _478  and  _480
REMARK  182  A    between atoms: _480  and  _481
REMARK  183  A    between atoms: _480  and  _483
REMARK  184  A    between atoms: _486  and  _488
REMARK  185  A    between atoms: _488  and  _489
REMARK  186  A    between atoms: _492  and  _494
REMARK  187  A    between atoms: _494  and  _495
REMARK  188  A    between atoms: _494  and  _497
REMARK  189  A    between atoms: _497  and  _498
REMARK  190  A    between atoms: _498  and  _499
REMARK  191  A    between atoms: _499  and  _500
REMARK  192  A    between atoms: _509  and  _511
REMARK  193  A    between atoms: _511  and  _512
REMARK  194  A    between atoms: _511  and  _514
REMARK  195  A    between atoms: _514  and  _515
REMARK  196  A    between atoms: _518  and  _520
REMARK  197  A    between atoms: _520  and  _521
REMARK  198  A    between atoms: _524  and  _526
REMARK  199  A    between atoms: _526  and  _527
REMARK  200  A    between atoms: _530  and  _532
REMARK  201  A    between atoms: _532  and  _533
REMARK  202  A    between atoms: _532  and  _535
REMARK  203  A    between atoms: _535  and  _536
REMARK  204  A    between atoms: _536  and  _537
REMARK                            x       y       z     vdW  Elec       q    Type
REMARK                         _______ _______ _______ _____ _____    ______ ____
ROOT
ATOM      1  O   HOH     1      -2.265  41.961  73.388  0.00  0.00    +0.000 OA
ENDROOT
TORSDOF 0
REMARK  Name = ../refined-set-2016/4kiu/4kiu_pocket.pdb
REMARK  204 active torsions:
REMARK  status: ('A' for Active; 'I' for Inactive)
REMARK    1  A    between atoms: _1  and  _3
REMARK    2  A    between atoms: _3  and  _4
REMARK    3  A    between atoms: _3  and  _6
REMARK    4  A    between atoms: _6  and  _7
REMARK    5  A    between atoms: _12  and  _14
REMARK    6  A    between atoms: _14  and  _15
REMARK    7  A    between atoms: _18  and  _19
REMARK    8  A    between atoms: _24  and  _26
REMARK    9  A    between atoms: _26  and  _27
REMARK   10  A    between atoms: _26  and  _29
REMARK   11  A    between atoms: _29  and  _30
REMARK   12  A    between atoms: _35  and  _37
REMARK   13  A    between atoms: _37  and  _38
REMARK   14  A    between atoms: _37  and  _40
REMARK   15  A    between atoms: _40  and  _41
REMARK   16  A    between atoms: _44  and  _46
REMARK   17  A    between atoms: _46  and  _47
REMARK   18  A    between atoms: _49  and  _51
REMARK   19  A    between atoms: _51  and  _52
REMARK   20  A    between atoms: _51  and  _54
REMARK   21  A    between atoms: _54  and  _55
REMARK   22  A    between atoms: _55  and  _56
REMARK   23  A    between atoms: _56  and  _57
REMARK   24  A    between atoms: _66  and  _68
REMARK   25  A    between atoms: _68  and  _69
REMARK   26  A    between atoms: _68  and  _71
REMARK   27  A    between atoms: _71  and  _72
REMARK   28  A    between atoms: _75  and  _77
REMARK   29  A    between atoms: _77  and  _78
REMARK   30  A    between atoms: _82  and  _83
REMARK   31  A    between atoms: _82  and  _85
REMARK   32  A    between atoms: _85  and  _86
REMARK   33  A    between atoms: _86  and  _87
REMARK   34  A    between atoms: _87  and  _88
REMARK   35  A    between atoms: _97  and  _99
REMARK   36  A    between atoms: _99  and  _100
REMARK   37  A    between atoms: _99  and  _102
REMARK   38  A    between atoms: _102  and  _103
REMARK   39  A    between atoms: _103  and  _104
REMARK   40  A    between atoms: _104  and  _105
REMARK   41  A    between atoms: _114  and  _116
REMARK   42  A    between atoms: _116  and  _117
REMARK   43  A    between atoms: _116  and  _119
REMARK   44  A    between atoms: _119  and  _120
REMARK   45  A    between atoms: _120  and  _121
REMARK   46  A    between atoms: _125  and  _126
REMARK   47  A    between atoms: _131  and  _133
REMARK   48  A    between atoms: _133  and  _134
REMARK   49  A    between atoms: _137  and  _139
REMARK   50  A    between atoms: _139  and  _140
REMARK   51  A    between atoms: _139  and  _142
REMARK   52  A    between atoms: _145  and  _147
REMARK   53  A    between atoms: _147  and  _148
REMARK   54  A    between atoms: _147  and  _150
REMARK   55  A    between atoms: _150  and  _151
REMARK   56  A    between atoms: _156  and  _157
REMARK   57  A    between atoms: _159  and  _161
REMARK   58  A    between atoms: _161  and  _162
REMARK   59  A    between atoms: _164  and  _166
REMARK   60  A    between atoms: _166  and  _167
REMARK   61  A    between atoms: _166  and  _169
REMARK   62  A    between atoms: _169  and  _170
REMARK   63  A    between atoms: _173  and  _175
REMARK   64  A    between atoms: _175  and  _176
REMARK   65  A    between atoms: _175  and  _178
REMARK   66  A    between atoms: _178  and  _179
REMARK   67  A    between atoms: _184  and  _186
REMARK   68  A    between atoms: _186  and  _187
REMARK   69  A    between atoms: _186  and  _189
REMARK   70  A    between atoms: _189  and  _190
REMARK   71  A    between atoms: _190  and  _191
REMARK   72  A    between atoms: _196  and  _198
REMARK   73  A    between atoms: _198  and  _199
REMARK   74  A    between atoms: _198  and  _201
REMARK   75  A    between atoms: _201  and  _202
REMARK   76  A    between atoms: _205  and  _207
REMARK   77  A    between atoms: _207  and  _208
REMARK   78  A    between atoms: _207  and  _210
REMARK   79  A    between atoms: _210  and  _211
REMARK   80  A    between atoms: _216  and  _218
REMARK   81  A    between atoms: _218  and  _219
REMARK   82  A    between atoms: _222  and  _224
REMARK   83  A    between atoms: _224  and  _225
REMARK   84  A    between atoms: _227  and  _229
REMARK   85  A    between atoms: _229  and  _230
REMARK   86  A    between atoms: _232  and  _234
REMARK   87  A    between atoms: _234  and  _235
REMARK   88  A    between atoms: _234  and  _237
REMARK   89  A    between atoms: _237  and  _238
REMARK   90  A    between atoms: _241  and  _243
REMARK   91  A    between atoms: _243  and  _244
REMARK   92  A    between atoms: _243  and  _246
REMARK   93  A    between atoms: _246  and  _247
REMARK   94  A    between atoms: _250  and  _252
REMARK   95  A    between atoms: _252  and  _253
REMARK   96  A    between atoms: _252  and  _255
REMARK   97  A    between atoms: _255  and  _256
REMARK   98  A    between atoms: _261  and  _263
REMARK   99  A    between atoms: _263  and  _264
REMARK  100  A    between atoms: _263  and  _266
REMARK  101  A    between atoms: _269  and  _271
REMARK  102  A    between atoms: _271  and  _272
REMARK  103  A    between atoms: _271  and  _274
REMARK  104  A    between atoms: _274  and  _275
REMARK  105  A    between atoms: _280  and  _282
REMARK  106  A    between atoms: _282  and  _283
REMARK  107  A    between atoms: _282  and  _285
REMARK  108  A    between atoms: _285  and  _286
REMARK  109  A    between atoms: _289  and  _291
REMARK  110  A    between atoms: _291  and  _292
REMARK  111  A    between atoms: _291  and  _294
REMARK  112  A    between atoms: _294  and  _295
REMARK  113  A    between atoms: _297  and  _299
REMARK  114  A    between atoms: _299  and  _300
REMARK  115  A    between atoms: _299  and  _302
REMARK  116  A    between atoms: _302  and  _303
REMARK  117  A    between atoms: _308  and  _310
REMARK  118  A    between atoms: _310  and  _311
REMARK  119  A    between atoms: _310  and  _313
REMARK  120  A    between atoms: _316  and  _318
REMARK  121  A    between atoms: _318  and  _319
REMARK  122  A    between atoms: _318  and  _321
REMARK  123  A    between atoms: _321  and  _322
REMARK  124  A    between atoms: _327  and  _329
REMARK  125  A    between atoms: _329  and  _330
REMARK  126  A    between atoms: _333  and  _335
REMARK  127  A    between atoms: _335  and  _336
REMARK  128  A    between atoms: _335  and  _338
REMARK  129  A    between atoms: _338  and  _339
REMARK  130  A    between atoms: _339  and  _340
REMARK  131  A    between atoms: _340  and  _341
REMARK  132  A    between atoms: _350  and  _352
REMARK  133  A    between atoms: _352  and  _353
REMARK  134  A    between atoms: _352  and  _355
REMARK  135  A    between atoms: _355  and  _356
REMARK  136  A    between atoms: _356  and  _357
REMARK  137  A    between atoms: _360  and  _362
REMARK  138  A    between atoms: _362  and  _363
REMARK  139  A    between atoms: _362  and  _365
REMARK  140  A    between atoms: _365  and  _366
REMARK  141  A    between atoms: _372  and  _374
REMARK  142  A    between atoms: _374  and  _375
REMARK  143  A    between atoms: _374  and  _377
REMARK  144  A    between atoms: _377  and  _378
REMARK  145  A    between atoms: _378  and  _379
REMARK  146  A    between atoms: _379  and  _380
REMARK  147  A    between atoms: _389  and  _391
REMARK  148  A    between atoms: _391  and  _392
REMARK  149  A    between atoms: _391  and  _394
REMARK  150  A    between atoms: _394  and  _395
REMARK  151  A    between atoms: _395  and  _396
REMARK  152  A    between atoms: _396  and  _397
REMARK  153  A    between atoms: _406  and  _408
REMARK  154  A    between atoms: _408  and  _409
REMARK  155  A    between atoms: _408  and  _411
REMARK  156  A    between atoms: _411  and  _412
REMARK  157  A    between atoms: _417  and  _419
REMARK  158  A    between atoms: _419  and  _420
REMARK  159  A    between atoms: _419  and  _422
REMARK  160  A    between atoms: _422  and  _423
REMARK  161  A    between atoms: _426  and  _428
REMARK  162  A    between atoms: _428  and  _429
REMARK  163  A    between atoms: _428  and  _431
REMARK  164  A    between atoms: _434  and  _436
REMARK  165  A    between atoms: _436  and  _437
REMARK  166  A    between atoms: _439  and  _441
REMARK  167  A    between atoms: _441  and  _442
REMARK  168  A    between atoms: _441  and  _444
REMARK  169  A    between atoms: _444  and  _445
REMARK  170  A    between atoms: _448  and  _450
REMARK  171  A    between atoms: _450  and  _451
REMARK  172  A    between atoms: _453  and  _455
REMARK  173  A    between atoms: _455  and  _456
REMARK  174  A    between atoms: _455  and  _458
REMARK  175  A    between atoms: _458  and  _459
REMARK  176  A    between atoms: _464  and  _465
REMARK  177  A    between atoms: _467  and  _469
REMARK  178  A    between atoms: _469  and  _470
REMARK  179  A    between atoms: _469  and  _472
REMARK  180  A    between atoms: _472  and  _473
REMARK  181  A    between atoms: _478  and  _480
REMARK  182  A    between atoms: _480  and  _481
REMARK  183  A    between atoms: _480  and  _483
REMARK  184  A    between atoms: _486  and  _488
REMARK  185  A    between atoms: _488  and  _489
REMARK  186  A    between atoms: _492  and  _494
REMARK  187  A    between atoms: _494  and  _495
REMARK  188  A    between atoms: _494  and  _497
REMARK  189  A    between atoms: _497  and  _498
REMARK  190  A    between atoms: _498  and  _499
REMARK  191  A    between atoms: _499  and  _500
REMARK  192  A    between atoms: _509  and  _511
REMARK  193  A    between atoms: _511  and  _512
REMARK  194  A    between atoms: _511  and  _514
REMARK  195  A    between atoms: _514  and  _515
REMARK  196  A    between atoms: _518  and  _520
REMARK  197  A    between atoms: _520  and  _521
REMARK  198  A    between atoms: _524  and  _526
REMARK  199  A    between atoms: _526  and  _527
REMARK  200  A    between atoms: _530  and  _532
REMARK  201  A    between atoms: _532  and  _533
REMARK  202  A    between atoms: _532  and  _535
REMARK  203  A    between atoms: _535  and  _536
REMARK  204  A    between atoms: _536  and  _537
REMARK                            x       y       z     vdW  Elec       q    Type
REMARK                         _______ _______ _______ _____ _____    ______ ____
ROOT
ATOM      1  O   HOH     1      -9.240  33.811  76.244  0.00  0.00    +0.000 OA
ENDROOT
TORSDOF 0
